@<TRIPOS>MOLECULE
Imatinib
   68    72     0     0     0
SMALL
USER_CHARGES

@<TRIPOS>ATOM
      1 C1         34.4536   -1.9071   49.5795 C.ar      1 <0>         0.4239
      2 N1         35.4290   -2.5896   48.9389 N.ar      1 <0>        -0.6705
      3 C2         36.6100   -1.9492   48.7882 C.ar      1 <0>         0.4070
      4 C3         36.8602   -0.6653   49.2453 C.ar      1 <0>        -0.2527
      5 C4         35.8322    0.0044   49.8995 C.ar      1 <0>        -0.0582
      6 C5         34.6028   -0.6214   50.0739 C.ar      1 <0>        -0.2756
      7 C6         33.5170    0.0482   50.7490 C.ar      1 <0>         0.5369
      8 C7         33.3885    1.4215   50.7051 C.ar      1 <0>        -0.4080
      9 C8         32.3101    1.9424   51.3907 C.ar      1 <0>         0.4622
     10 N2         31.4194    1.1903   52.0699 N.ar      1 <0>        -0.7355
     11 C9         31.6532   -0.1355   52.0372 C.ar      1 <0>         0.8855
     12 N3         32.6646   -0.7638   51.4080 N.ar      1 <0>        -0.7535
     13 N4         30.7424   -0.9527   52.7361 N.pl3     1 <0>        -0.7180
     14 C10        29.5871   -0.6656   53.4961 C.ar      1 <0>         0.1767
     15 C11        29.2100   -1.4871   54.5586 C.ar      1 <0>        -0.1447
     16 C12        30.0132   -2.6921   54.9261 C.3       1 <0>        -0.0513
     17 C13        28.0657   -1.1892   55.2984 C.ar      1 <0>        -0.0884
     18 C14        27.2984   -0.0699   54.9758 C.ar      1 <0>        -0.1657
     19 C15        27.6755    0.7515   53.9133 C.ar      1 <0>         0.0838
     20 C16        28.8198    0.4536   53.1735 C.ar      1 <0>        -0.1920
     21 N5         26.8954    1.8892   53.5860 N.am      1 <0>        -0.4686
     22 C17        27.1199    2.8142   52.5653 C.2       1 <0>         0.6818
     23 O1         28.0622    2.7694   51.7773 O.2       1 <0>        -0.5864
     24 C18        26.1542    3.9006   52.5163 C.ar      1 <0>        -0.1502
     25 C19        24.8616    3.7067   53.0034 C.ar      1 <0>        -0.0923
     26 C20        23.9351    4.7484   52.9567 C.ar      1 <0>        -0.1278
     27 C21        24.3013    5.9840   52.4227 C.ar      1 <0>        -0.0578
     28 C22        25.5939    6.1777   51.9356 C.ar      1 <0>        -0.1278
     29 C23        26.5203    5.1360   51.9824 C.ar      1 <0>        -0.0923
     30 C24        23.3033    7.1045   52.3705 C.3       1 <0>         0.2164
     31 N6         22.5636    7.2370   53.6242 N.3       1 <0>        -0.7431
     32 C25        21.2807    7.9156   53.4034 C.3       1 <0>         0.1735
     33 C26        20.5055    8.0579   54.7177 C.3       1 <0>         0.1711
     34 N7         21.3012    8.7802   55.7177 N.3       1 <0>        -0.7393
     35 C27        20.5616    8.9148   56.9711 C.3       1 <0>         0.1607
     36 C28        22.5837    8.1012   55.9394 C.3       1 <0>         0.1711
     37 C29        23.3594    7.9576   54.6254 C.3       1 <0>         0.1735
     38 H1         33.5188   -2.4507   49.6826 H         1 <0>         0.0309
     39 H2         37.3794   -2.5143   48.2723 H         1 <0>         0.0253
     40 H3         37.8271   -0.1979   49.0977 H         1 <0>         0.1471
     41 H4         36.0034    1.0128   50.2681 H         1 <0>         0.1502
     42 H5         34.0806    2.0615   50.1721 H         1 <0>         0.1591
     43 H6         32.1269    3.0114   51.4135 H         1 <0>         0.0276
     44 H7         30.9602   -1.9439   52.6833 H         1 <0>         0.4519
     45 H8         30.7810   -2.4263   55.6616 H         1 <0>         0.0436
     46 H9         29.3767   -3.4770   55.3525 H         1 <0>         0.0436
     47 H10        30.5057   -3.1230   54.0458 H         1 <0>         0.0436
     48 H11        27.7637   -1.8228   56.1282 H         1 <0>         0.1354
     49 H12        26.4086    0.1530   55.5593 H         1 <0>         0.1730
     50 H13        29.1136    1.0944   52.3446 H         1 <0>         0.1593
     51 H14        26.0742    2.0504   54.1639 H         1 <0>         0.3215
     52 H15        24.5653    2.7482   53.4220 H         1 <0>         0.1471
     53 H16        22.9302    4.5881   53.3382 H         1 <0>         0.1433
     54 H17        25.8875    7.1369   51.5177 H         1 <0>         0.1433
     55 H18        27.5247    5.2984   51.6001 H         1 <0>         0.1471
     56 H19        23.8039    8.0584   52.1719 H         1 <0>         0.0422
     57 H20        22.5757    6.9456   51.5677 H         1 <0>         0.0422
     58 H21        21.4337    8.9070   52.9558 H         1 <0>         0.0379
     59 H22        20.6690    7.3329   52.7039 H         1 <0>         0.0379
     60 H23        19.5790    8.6083   54.5134 H         1 <0>         0.0376
     61 H24        20.2198    7.0636   55.0876 H         1 <0>         0.0376
     62 H25        21.1765    9.4516   57.6860 H         1 <0>         0.0320
     63 H26        20.3280    7.9258   57.3518 H         1 <0>         0.0320
     64 H27        19.6450    9.4646   56.7837 H         1 <0>         0.0320
     65 H28        23.1954    8.6839   56.6388 H         1 <0>         0.0376
     66 H29        22.4301    7.1100   56.3875 H         1 <0>         0.0376
     67 H30        23.6466    8.9516   54.2561 H         1 <0>         0.0379
     68 H31        24.2850    7.4061   54.8301 H         1 <0>         0.0379
@<TRIPOS>BOND
     1    1    6 ar
     2    1    2 ar
     3    2    3 ar
     4    3    4 ar
     5    4    5 ar
     6    5    6 ar
     7    6    7 1
     8    7   12 ar
     9    7    8 ar
    10    8    9 ar
    11    9   10 ar
    12   10   11 ar
    13   11   12 ar
    14   11   13 1
    15   13   14 1
    16   14   20 ar
    17   14   15 ar
    18   15   16 1
    19   15   17 ar
    20   17   18 ar
    21   18   19 ar
    22   19   20 ar
    23   19   21 1
    24   21   22 am
    25   22   23 2
    26   22   24 1
    27   24   29 ar
    28   24   25 ar
    29   25   26 ar
    30   26   27 ar
    31   27   28 ar
    32   28   29 ar
    33   27   30 1
    34   30   31 1
    35   31   37 1
    36   31   32 1
    37   32   33 1
    38   33   34 1
    39   34   35 1
    40   34   36 1
    41   36   37 1
    42    1   38 1
    43    3   39 1
    44    4   40 1
    45    5   41 1
    46    8   42 1
    47    9   43 1
    48   13   44 1
    49   16   45 1
    50   16   46 1
    51   16   47 1
    52   17   48 1
    53   18   49 1
    54   20   50 1
    55   21   51 1
    56   25   52 1
    57   26   53 1
    58   28   54 1
    59   29   55 1
    60   30   56 1
    61   30   57 1
    62   32   58 1
    63   32   59 1
    64   33   60 1
    65   33   61 1
    66   35   62 1
    67   35   63 1
    68   35   64 1
    69   36   65 1
    70   36   66 1
    71   37   67 1
    72   37   68 1
@<TRIPOS>MOLECULE
Dasatinib
   59    62     0     0     0
SMALL
USER_CHARGES

@<TRIPOS>ATOM
      1 Cl1        31.5461   -1.6023   50.0402 Cl        1 <0>        -0.0862
      2 C1         32.8637   -0.9269   50.9318 C.ar      1 <0>         0.0149
      3 C2         34.0910   -1.5892   50.9036 C.ar      1 <0>        -0.1207
      4 C3         35.1778   -1.0742   51.6103 C.ar      1 <0>        -0.1241
      5 C4         35.0372    0.1031   52.3452 C.ar      1 <0>        -0.1225
      6 C5         33.8098    0.7653   52.3733 C.ar      1 <0>        -0.0680
      7 C6         33.6933    2.0248   53.1698 C.3       1 <0>        -0.0578
      8 C7         32.7231    0.2503   51.6666 C.ar      1 <0>         0.0557
      9 N1         31.4814    0.9335   51.7041 N.am      1 <0>        -0.4785
     10 C8         30.2549    0.4521   52.1643 C.2       1 <0>         0.7246
     11 O1         30.0736   -0.6754   52.6190 O.2       1 <0>        -0.5892
     12 C9         29.1752    1.3712   52.0315 C.2       1 <0>        -0.3045
     13 C10        28.9644    2.3663   51.1002 C.2       1 <0>         0.4008
     14 N2         27.7999    3.0944   51.2480 N.2       1 <0>        -0.6463
     15 C11        27.1440    2.6395   52.2925 C.2       1 <0>         0.6609
     16 S1         27.8698    1.3379   53.1434 S.3       1 <0>        -0.0508
     17 N3         25.9091    3.1510   52.7387 N.pl3     1 <0>        -0.8347
     18 C12        25.0745    4.1932   52.2659 C.ar      1 <0>         0.6999
     19 C13        24.3068    4.8640   53.1959 C.ar      1 <0>        -0.4476
     20 C14        23.5079    5.8718   52.6953 C.ar      1 <0>         0.6859
     21 N4         23.4547    6.2076   51.3897 N.ar      1 <0>        -0.7651
     22 C15        24.2502    5.4797   50.5829 C.ar      1 <0>         0.6975
     23 N5         25.0708    4.4758   50.9467 N.ar      1 <0>        -0.7121
     24 C16        24.2188    5.8215   49.1319 C.3       1 <0>        -0.1358
     25 N6         22.7132    6.5767   53.6062 N.pl3     1 <0>        -0.7566
     26 C17        22.4059    7.9818   53.3105 C.3       1 <0>         0.1942
     27 C18        22.0061    8.7240   54.5878 C.3       1 <0>         0.1719
     28 N7         20.9115    8.0313   55.2788 N.3       1 <0>        -0.7484
     29 C19        21.3319    6.6729   55.6435 C.3       1 <0>         0.1719
     30 C20        21.7104    5.8619   54.4017 C.3       1 <0>         0.1942
     31 C21        20.5014    8.7780   56.4675 C.3       1 <0>         0.1732
     32 C22        19.5871    9.9326   56.0756 C.3       1 <0>         0.1284
     33 O2         18.4328    9.4148   55.4265 O.3       1 <0>        -0.6058
     34 H1         34.2178   -2.5073   50.3354 H         1 <0>         0.1482
     35 H2         36.1335   -1.5894   51.5888 H         1 <0>         0.1381
     36 H3         35.8898    0.4963   52.8922 H         1 <0>         0.1374
     37 H4         33.9403    2.8913   52.5463 H         1 <0>         0.0510
     38 H5         32.6768    2.1524   53.5608 H         1 <0>         0.0510
     39 H6         34.3691    2.0101   54.0333 H         1 <0>         0.0510
     40 H7         31.4849    1.8883   51.3539 H         1 <0>         0.3229
     41 H8         29.6331    2.6067   50.2839 H         1 <0>         0.0447
     42 H9         25.5460    2.6794   53.5625 H         1 <0>         0.4593
     43 H10        24.3297    4.6155   54.2508 H         1 <0>         0.1545
     44 H11        24.9731    6.5843   48.9025 H         1 <0>         0.0647
     45 H12        24.4167    4.9388   48.5098 H         1 <0>         0.0647
     46 H13        23.2343    6.2054   48.8339 H         1 <0>         0.0647
     47 H14        23.2819    8.4764   52.8727 H         1 <0>         0.0525
     48 H15        21.5911    8.0368   52.5762 H         1 <0>         0.0525
     49 H16        22.8817    8.8320   55.2421 H         1 <0>         0.0402
     50 H17        21.6863    9.7351   54.3068 H         1 <0>         0.0402
     51 H18        22.1789    6.6952   56.3425 H         1 <0>         0.0402
     52 H19        20.5091    6.1535   56.1501 H         1 <0>         0.0402
     53 H20        22.1036    4.8886   54.7209 H         1 <0>         0.0525
     54 H21        20.8163    5.6751   53.7919 H         1 <0>         0.0525
     55 H22        21.3971    9.1548   56.9842 H         1 <0>         0.0481
     56 H23        19.9683    8.1009   57.1511 H         1 <0>         0.0481
     57 H24        20.0935   10.6064   55.3776 H         1 <0>         0.0292
     58 H25        19.2706   10.5021   56.9555 H         1 <0>         0.0292
     59 H26        17.8779   10.1765   55.1934 H         1 <0>         0.4034
@<TRIPOS>BOND
     1    1    2 1
     2    2    8 ar
     3    2    3 ar
     4    3    4 ar
     5    4    5 ar
     6    5    6 ar
     7    6    7 1
     8    6    8 ar
     9    8    9 1
    10    9   10 am
    11   10   11 2
    12   10   12 1
    13   12   16 1
    14   12   13 2
    15   13   14 1
    16   14   15 2
    17   15   16 1
    18   15   17 1
    19   17   18 1
    20   18   23 ar
    21   18   19 ar
    22   19   20 ar
    23   20   21 ar
    24   21   22 ar
    25   22   23 ar
    26   22   24 1
    27   20   25 1
    28   25   30 1
    29   25   26 1
    30   26   27 1
    31   27   28 1
    32   28   29 1
    33   29   30 1
    34   28   31 1
    35   31   32 1
    36   32   33 1
    37    3   34 1
    38    4   35 1
    39    5   36 1
    40    7   37 1
    41    7   38 1
    42    7   39 1
    43    9   40 1
    44   13   41 1
    45   17   42 1
    46   19   43 1
    47   24   44 1
    48   24   45 1
    49   24   46 1
    50   26   47 1
    51   26   48 1
    52   27   49 1
    53   27   50 1
    54   29   51 1
    55   29   52 1
    56   30   53 1
    57   30   54 1
    58   31   55 1
    59   31   56 1
    60   32   57 1
    61   32   58 1
    62   33   59 1
@<TRIPOS>MOLECULE
Nilotinib
   61    65     0     0     0
SMALL
USER_CHARGES

@<TRIPOS>ATOM
      1 C1         20.5058    8.8370   54.0595 C.3       1 <0>        -0.1181
      2 C2         21.5579    7.8164   53.9377 C.2       1 <0>         0.3159
      3 N1         22.2095    7.3480   55.0510 N.2       1 <0>        -0.6596
      4 C3         23.0661    6.4637   54.5903 C.2       1 <0>         0.4175
      5 N2         22.9923    6.3461   53.2301 N.pl3     1 <0>        -0.1524
      6 C4         22.0262    7.2097   52.7962 C.2       1 <0>        -0.2386
      7 C5         23.7553    5.5059   52.4401 C.ar      1 <0>         0.0639
      8 C6         24.7084    4.6725   53.0257 C.ar      1 <0>        -0.1818
      9 C7         25.4769    3.8241   52.2287 C.ar      1 <0>         0.1030
     10 C8         25.2926    3.8091   50.8462 C.ar      1 <0>        -0.1557
     11 C9         24.3396    4.6426   50.2606 C.ar      1 <0>        -0.1092
     12 C10        23.5710    5.4910   51.0576 C.ar      1 <0>        -0.1500
     13 C11        24.1426    4.6266   48.7826 C.3       1 <0>         0.6861
     14 F1         24.9621    3.7495   48.1303 F         1 <0>        -0.2339
     15 F2         22.8769    4.2802   48.4031 F         1 <0>        -0.2339
     16 F3         24.3770    5.8424   48.2082 F         1 <0>        -0.2339
     17 N3         26.4303    2.9903   52.8141 N.am      1 <0>        -0.4722
     18 C12        27.2961    2.0721   52.1862 C.2       1 <0>         0.6899
     19 O1         27.3245    1.8763   50.9731 O.2       1 <0>        -0.5798
     20 C13        28.1634    1.3068   53.0982 C.ar      1 <0>        -0.1454
     21 C14        27.7560    1.0679   54.4107 C.ar      1 <0>        -0.1108
     22 C15        28.5769    0.3433   55.2748 C.ar      1 <0>        -0.1329
     23 C16        29.8052   -0.1424   54.8264 C.ar      1 <0>        -0.0217
     24 C17        30.6643   -0.9154   55.7734 C.3       1 <0>        -0.0600
     25 C18        30.2126    0.0966   53.5139 C.ar      1 <0>         0.1372
     26 C19        29.3917    0.8212   52.6498 C.ar      1 <0>        -0.1005
     27 N4         31.4529   -0.3876   53.0431 N.pl3     1 <0>        -0.7290
     28 C20        31.8959   -0.7915   51.7700 C.ar      1 <0>         0.8745
     29 N5         30.9673   -1.3175   50.9488 N.ar      1 <0>        -0.7309
     30 C21        31.4263   -1.6939   49.7372 C.ar      1 <0>         0.4584
     31 C22        32.7416   -1.5625   49.3409 C.ar      1 <0>        -0.4005
     32 C23        33.5939   -1.0088   50.2743 C.ar      1 <0>         0.5333
     33 N6         33.2034   -0.6105   51.5029 N.ar      1 <0>        -0.7375
     34 C24        34.9944   -0.8158   49.9839 C.ar      1 <0>        -0.2758
     35 C25        35.8156   -1.8919   49.6660 C.ar      1 <0>        -0.0612
     36 C26        37.1611   -1.6748   49.3905 C.ar      1 <0>        -0.2511
     37 C27        37.6326   -0.3731   49.4457 C.ar      1 <0>         0.4055
     38 N7         36.8655    0.6974   49.7508 N.ar      1 <0>        -0.6648
     39 C28        35.5630    0.4474   50.0128 C.ar      1 <0>         0.4246
     40 H1         19.5319    8.3565   54.1943 H         1 <0>         0.0496
     41 H2         20.6969    9.4955   54.9132 H         1 <0>         0.0496
     42 H3         20.4685    9.4685   53.1655 H         1 <0>         0.0496
     43 H4         23.7573    5.8865   55.1905 H         1 <0>         0.0706
     44 H5         21.7635    7.3175   51.7522 H         1 <0>         0.1855
     45 H6         24.8529    4.6818   54.1042 H         1 <0>         0.1788
     46 H7         25.8912    3.1484   50.2229 H         1 <0>         0.1631
     47 H8         22.8279    6.1388   50.5972 H         1 <0>         0.1578
     48 H9         26.5119    3.0538   53.8354 H         1 <0>         0.3260
     49 H10        26.8009    1.4417   54.7706 H         1 <0>         0.1367
     50 H11        28.2504    0.1625   56.2955 H         1 <0>         0.1422
     51 H12        30.4280   -1.9839   55.7139 H         1 <0>         0.0558
     52 H13        31.7281   -0.7788   55.5443 H         1 <0>         0.0558
     53 H14        30.5143   -0.5806   56.8071 H         1 <0>         0.0558
     54 H15        29.7089    1.0080   51.6260 H         1 <0>         0.1590
     55 H16        32.1612   -0.4575   53.7667 H         1 <0>         0.4525
     56 H17        30.6826   -2.1184   49.0712 H         1 <0>         0.0307
     57 H18        33.0687   -1.8777   48.3579 H         1 <0>         0.1608
     58 H19        35.4211   -2.9043   49.6292 H         1 <0>         0.1476
     59 H20        37.8206   -2.4980   49.1411 H         1 <0>         0.1474
     60 H21        38.6745   -0.1508   49.2386 H         1 <0>         0.0259
     61 H22        34.9762    1.3289   50.2550 H         1 <0>         0.0309
@<TRIPOS>BOND
     1    1    2 1
     2    2    6 2
     3    2    3 1
     4    3    4 2
     5    4    5 1
     6    5    6 1
     7    5    7 1
     8    7   12 ar
     9    7    8 ar
    10    8    9 ar
    11    9   10 ar
    12   10   11 ar
    13   11   12 ar
    14   11   13 1
    15   13   14 1
    16   13   15 1
    17   13   16 1
    18    9   17 1
    19   17   18 am
    20   18   19 2
    21   18   20 1
    22   20   26 ar
    23   20   21 ar
    24   21   22 ar
    25   22   23 ar
    26   23   24 1
    27   23   25 ar
    28   25   26 ar
    29   25   27 1
    30   27   28 1
    31   28   33 ar
    32   28   29 ar
    33   29   30 ar
    34   30   31 ar
    35   31   32 ar
    36   32   33 ar
    37   32   34 1
    38   34   39 ar
    39   34   35 ar
    40   35   36 ar
    41   36   37 ar
    42   37   38 ar
    43   38   39 ar
    44    1   40 1
    45    1   41 1
    46    1   42 1
    47    4   43 1
    48    6   44 1
    49    8   45 1
    50   10   46 1
    51   12   47 1
    52   17   48 1
    53   21   49 1
    54   22   50 1
    55   24   51 1
    56   24   52 1
    57   24   53 1
    58   26   54 1
    59   27   55 1
    60   30   56 1
    61   31   57 1
    62   35   58 1
    63   36   59 1
    64   37   60 1
    65   39   61 1
@<TRIPOS>MOLECULE
Bosutinib
   65    68     0     0     0
SMALL
USER_CHARGES

@<TRIPOS>ATOM
      1 C1         34.3691   -2.4806   50.4700 C.3       1 <0>         0.1175
      2 O1         33.9670   -1.1728   50.0800 O.3       1 <0>        -0.3385
      3 C2         33.3282   -0.4210   51.0209 C.ar      1 <0>         0.1270
      4 C3         31.9379   -0.4942   51.1070 C.ar      1 <0>        -0.1667
      5 C4         31.2573    0.2638   52.0598 C.ar      1 <0>         0.1806
      6 C5         31.9670    1.0949   52.9266 C.ar      1 <0>        -0.0174
      7 Cl1        31.1627    2.0509   54.1198 Cl        1 <0>        -0.0703
      8 C6         33.3573    1.1681   52.8404 C.ar      1 <0>        -0.0895
      9 C7         34.0379    0.4102   51.8876 C.ar      1 <0>        -0.0098
     10 Cl2        35.7576    0.5192   51.8030 Cl        1 <0>        -0.0629
     11 N1         29.8526    0.1698   52.1218 N.pl3     1 <0>        -0.6932
     12 C8         28.9258    0.3062   53.1874 C.ar      1 <0>         0.2667
     13 C9         29.0184   -0.5481   54.2768 C.ar      1 <0>        -0.1798
     14 C10        30.0154   -1.5679   54.3754 C.1       1 <0>         0.2439
     15 N2         30.8253   -2.3962   54.4554 N.1       1 <0>        -0.3592
     16 C11        28.1000   -0.3865   55.2942 C.ar      1 <0>         0.4641
     17 N3         27.1223    0.5484   55.2924 N.ar      1 <0>        -0.6675
     18 C12        27.0349    1.3760   54.2338 C.ar      1 <0>         0.4332
     19 C13        27.9277    1.2889   53.1451 C.ar      1 <0>        -0.1777
     20 C14        26.0436    2.3526   54.1914 C.ar      1 <0>        -0.2150
     21 C15        25.9236    3.2278   53.1091 C.ar      1 <0>         0.1221
     22 C16        26.8063    3.1363   52.0401 C.ar      1 <0>         0.0850
     23 C17        27.8072    2.1692   52.0564 C.ar      1 <0>        -0.1111
     24 O2         26.7028    3.9815   50.9779 O.3       1 <0>        -0.3287
     25 C18        25.8713    3.5654   49.8959 C.3       1 <0>         0.1175
     26 O3         24.9309    4.1719   53.1149 O.3       1 <0>        -0.3290
     27 C19        24.9476    5.1115   54.1814 C.3       1 <0>         0.1289
     28 C20        23.7738    6.0683   54.0103 C.3       1 <0>        -0.0894
     29 C21        23.7040    7.1195   55.1101 C.3       1 <0>         0.1788
     30 N4         22.5763    8.0336   54.9400 N.3       1 <0>        -0.7382
     31 C22        22.8239    9.3023   55.6360 C.3       1 <0>         0.1720
     32 C23        21.6408   10.2606   55.4610 C.3       1 <0>         0.1688
     33 N5         20.3967    9.6474   55.9416 N.3       1 <0>        -0.7357
     34 C24        19.2687   10.5615   55.7736 C.3       1 <0>         0.1591
     35 C25        20.1483    8.3793   55.2450 C.3       1 <0>         0.1688
     36 C26        21.3313    7.4205   55.4187 C.3       1 <0>         0.1720
     37 H1         34.8659   -2.9750   49.6317 H         1 <0>         0.0461
     38 H2         33.4923   -3.0557   50.7782 H         1 <0>         0.0461
     39 H3         35.0649   -2.4033   51.3088 H         1 <0>         0.0461
     40 H4         31.3894   -1.1437   50.4286 H         1 <0>         0.1591
     41 H5         33.9115    1.8171   53.5152 H         1 <0>         0.1666
     42 H6         29.4179   -0.0371   51.2268 H         1 <0>         0.4548
     43 H7         28.1116   -1.0181   56.1782 H         1 <0>         0.0373
     44 H8         25.3423    2.4395   55.0202 H         1 <0>         0.1659
     45 H9         28.4864    2.1164   51.2082 H         1 <0>         0.1521
     46 H10        25.8836    4.3336   49.1239 H         1 <0>         0.0432
     47 H11        24.8588    3.4103   50.2663 H         1 <0>         0.0432
     48 H12        26.2668    2.6325   49.4964 H         1 <0>         0.0432
     49 H13        25.9023    5.6457   54.1548 H         1 <0>         0.0404
     50 H14        24.8705    4.5651   55.1268 H         1 <0>         0.0404
     51 H15        22.8418    5.4895   54.0029 H         1 <0>         0.0661
     52 H16        23.8366    6.5478   53.0253 H         1 <0>         0.0661
     53 H17        23.5791    6.6368   56.0843 H         1 <0>         0.0316
     54 H18        24.6193    7.7192   55.1401 H         1 <0>         0.0316
     55 H19        23.0069    9.1331   56.7059 H         1 <0>         0.0369
     56 H20        23.7199    9.7821   55.2239 H         1 <0>         0.0369
     57 H21        21.8491   11.1731   56.0327 H         1 <0>         0.0374
     58 H22        21.5529   10.5499   54.4048 H         1 <0>         0.0374
     59 H23        18.3679   10.0786   56.1376 H         1 <0>         0.0321
     60 H24        19.1615   10.8011   54.7206 H         1 <0>         0.0321
     61 H25        19.4595   11.4666   56.3409 H         1 <0>         0.0321
     62 H26        19.2524    7.8994   55.6572 H         1 <0>         0.0374
     63 H27        19.9649    8.5491   54.1752 H         1 <0>         0.0374
     64 H28        21.4185    7.1298   56.4745 H         1 <0>         0.0369
     65 H29        21.1231    6.5088   54.8458 H         1 <0>         0.0369
@<TRIPOS>BOND
     1    1    2 1
     2    2    3 1
     3    3    9 ar
     4    3    4 ar
     5    4    5 ar
     6    5    6 ar
     7    6    7 1
     8    6    8 ar
     9    8    9 ar
    10    9   10 1
    11    5   11 1
    12   11   12 1
    13   12   19 ar
    14   12   13 ar
    15   13   14 1
    16   14   15 3
    17   13   16 ar
    18   16   17 ar
    19   17   18 ar
    20   18   19 ar
    21   19   23 ar
    22   18   20 ar
    23   20   21 ar
    24   21   22 ar
    25   22   23 ar
    26   22   24 1
    27   24   25 1
    28   21   26 1
    29   26   27 1
    30   27   28 1
    31   28   29 1
    32   29   30 1
    33   30   36 1
    34   30   31 1
    35   31   32 1
    36   32   33 1
    37   33   34 1
    38   33   35 1
    39   35   36 1
    40    1   37 1
    41    1   38 1
    42    1   39 1
    43    4   40 1
    44    8   41 1
    45   11   42 1
    46   16   43 1
    47   20   44 1
    48   23   45 1
    49   25   46 1
    50   25   47 1
    51   25   48 1
    52   27   49 1
    53   27   50 1
    54   28   51 1
    55   28   52 1
    56   29   53 1
    57   29   54 1
    58   31   55 1
    59   31   56 1
    60   32   57 1
    61   32   58 1
    62   34   59 1
    63   34   60 1
    64   34   61 1
    65   35   62 1
    66   35   63 1
    67   36   64 1
    68   36   65 1
@<TRIPOS>MOLECULE
Ponatinib
   66    70     0     0     0
SMALL
USER_CHARGES

@<TRIPOS>ATOM
      1 N1         33.3791   -1.4954   49.8752 N.2       1 <0>        -0.4757
      2 C1         34.0281   -2.1290   48.9485 C.2       1 <0>         0.3929
      3 C2         35.4839   -2.0438   48.6816 C.2       1 <0>        -0.2592
      4 C3         36.1965   -1.2345   49.4738 C.2       1 <0>        -0.1520
      5 C4         35.5457   -0.5158   50.5037 C.2       1 <0>         0.4170
      6 N2         34.1793   -0.6953   50.6345 N.pl3     1 <0>         0.0690
      7 N3         36.0041    0.3299   51.4043 N.2       1 <0>        -0.6481
      8 C5         34.9074    0.7071   52.1364 C.2       1 <0>         0.3642
      9 C6         33.7684    0.0878   51.6808 C.2       1 <0>        -0.0943
     10 C7         32.4305    0.2140   52.1709 C.1       1 <0>        -0.0666
     11 C8         31.3068    0.3200   52.5825 C.1       1 <0>        -0.0835
     12 C9         29.9680    0.4461   53.0726 C.ar      1 <0>         0.0114
     13 C10        29.1377    1.4240   52.5247 C.ar      1 <0>        -0.0418
     14 C11        27.8292    1.5664   52.9863 C.ar      1 <0>        -0.1632
     15 C12        27.3509    0.7311   53.9958 C.ar      1 <0>        -0.0904
     16 C13        28.1812   -0.2467   54.5437 C.ar      1 <0>        -0.1474
     17 C14        29.4897   -0.3892   54.0821 C.ar      1 <0>        -0.0170
     18 C15        30.3511   -1.4477   54.6930 C.3       1 <0>        -0.0666
     19 C16        26.9514    2.5996   52.4104 C.2       1 <0>         0.6883
     20 O1         27.0960    2.9775   51.2497 O.2       1 <0>        -0.5819
     21 N4         25.9537    3.0548   53.2738 N.am      1 <0>        -0.4704
     22 C17        24.9567    3.9937   53.0074 C.ar      1 <0>         0.0678
     23 C18        24.0348    4.3316   53.9981 C.ar      1 <0>        -0.1332
     24 C19        23.0378    5.2702   53.7323 C.ar      1 <0>        -0.1013
     25 C20        22.9628    5.8710   52.4756 C.ar      1 <0>        -0.0512
     26 C21        23.8847    5.5331   51.4849 C.ar      1 <0>        -0.1398
     27 C22        24.8817    4.5944   51.7508 C.ar      1 <0>        -0.1516
     28 C23        23.8237    6.1630   50.1321 C.3       1 <0>         0.6854
     29 F1         22.8064    7.0629   49.9949 F         1 <0>        -0.2395
     30 F2         24.9558    6.8492   49.7993 F         1 <0>        -0.2395
     31 F3         23.6421    5.2480   49.1368 F         1 <0>        -0.2395
     32 C24        21.8809    6.8783   52.2130 C.3       1 <0>         0.2180
     33 N5         21.0280    7.0823   53.3823 N.3       1 <0>        -0.7550
     34 C25        19.7154    7.6063   52.9852 C.3       1 <0>         0.1761
     35 C26        18.8211    7.8236   54.2107 C.3       1 <0>         0.1741
     36 N6         19.4637    8.7278   55.1722 N.3       1 <0>        -0.7442
     37 C27        18.6108    8.9339   56.3410 C.3       1 <0>         0.1634
     38 C28        20.7759    8.2035   55.5702 C.3       1 <0>         0.1741
     39 C29        21.6706    7.9850   54.3452 C.3       1 <0>         0.1761
     40 H1         33.4711   -2.8032   48.2777 H         1 <0>         0.0519
     41 H2         35.9148   -2.6226   47.8763 H         1 <0>         0.1570
     42 H3         37.2662   -1.1230   49.3361 H         1 <0>         0.1716
     43 H4         34.9995    1.4064   52.9557 H         1 <0>         0.0559
     44 H5         29.5045    2.0782   51.7357 H         1 <0>         0.1679
     45 H6         26.3330    0.8338   54.3634 H         1 <0>         0.1365
     46 H7         27.7981   -0.8921   55.3299 H         1 <0>         0.1420
     47 H8         30.2460   -2.3871   54.1391 H         1 <0>         0.0565
     48 H9         31.4066   -1.1513   54.6842 H         1 <0>         0.0565
     49 H10        30.0764   -1.6246   55.7396 H         1 <0>         0.0565
     50 H11        25.9090    2.6494   54.2054 H         1 <0>         0.3227
     51 H12        24.0836    3.8699   54.9811 H         1 <0>         0.1829
     52 H13        22.3243    5.5266   54.5109 H         1 <0>         0.1642
     53 H14        25.5999    4.3317   50.9771 H         1 <0>         0.1437
     54 H15        22.3133    7.8465   51.9379 H         1 <0>         0.0554
     55 H16        21.2409    6.5603   51.3832 H         1 <0>         0.0554
     56 H17        19.8208    8.5501   52.4331 H         1 <0>         0.0395
     57 H18        19.2179    6.8921   52.3179 H         1 <0>         0.0395
     58 H19        17.8720    8.2566   53.8721 H         1 <0>         0.0366
     59 H20        18.5909    6.8555   54.6762 H         1 <0>         0.0366
     60 H21        19.1140    9.6049   57.0293 H         1 <0>         0.0314
     61 H22        18.4308    7.9772   56.8206 H         1 <0>         0.0314
     62 H23        17.6700    9.3691   56.0200 H         1 <0>         0.0314
     63 H24        21.2734    8.9178   56.2374 H         1 <0>         0.0366
     64 H25        20.6697    7.2599   56.1227 H         1 <0>         0.0366
     65 H26        21.9023    8.9531   53.8804 H         1 <0>         0.0395
     66 H27        22.6191    7.5509   54.6842 H         1 <0>         0.0395
@<TRIPOS>BOND
     1    1    6 1
     2    1    2 2
     3    2    3 1
     4    3    4 2
     5    4    5 1
     6    5    6 1
     7    6    9 1
     8    5    7 2
     9    7    8 1
    10    8    9 2
    11    9   10 1
    12   10   11 3
    13   11   12 1
    14   12   17 ar
    15   12   13 ar
    16   13   14 ar
    17   14   15 ar
    18   15   16 ar
    19   16   17 ar
    20   17   18 1
    21   14   19 1
    22   19   20 2
    23   19   21 am
    24   21   22 1
    25   22   27 ar
    26   22   23 ar
    27   23   24 ar
    28   24   25 ar
    29   25   26 ar
    30   26   27 ar
    31   26   28 1
    32   28   29 1
    33   28   30 1
    34   28   31 1
    35   25   32 1
    36   32   33 1
    37   33   39 1
    38   33   34 1
    39   34   35 1
    40   35   36 1
    41   36   37 1
    42   36   38 1
    43   38   39 1
    44    2   40 1
    45    3   41 1
    46    4   42 1
    47    8   43 1
    48   13   44 1
    49   15   45 1
    50   16   46 1
    51   18   47 1
    52   18   48 1
    53   18   49 1
    54   21   50 1
    55   23   51 1
    56   24   52 1
    57   27   53 1
    58   32   54 1
    59   32   55 1
    60   34   56 1
    61   34   57 1
    62   35   58 1
    63   35   59 1
    64   37   60 1
    65   37   61 1
    66   37   62 1
    67   38   63 1
    68   38   64 1
    69   39   65 1
    70   39   66 1
@<TRIPOS>MOLECULE
Gefitinib
   55    58     0     0     0
SMALL
USER_CHARGES

@<TRIPOS>ATOM
      1 F1         22.8912    9.3789   56.2668 F         1 <0>        -0.1246
      2 C1         23.3608    8.2710   55.6755 C.ar      1 <0>         0.1198
      3 C2         24.4127    7.5736   56.2696 C.ar      1 <0>        -0.1425
      4 C3         24.9131    6.4196   55.6666 C.ar      1 <0>        -0.1030
      5 C4         24.3616    5.9630   54.4695 C.ar      1 <0>         0.1325
      6 C5         23.3097    6.6605   53.8754 C.ar      1 <0>        -0.1447
      7 C6         22.8094    7.8144   54.4784 C.ar      1 <0>        -0.0037
      8 Cl1        21.5113    8.6713   53.7405 Cl        1 <0>        -0.0636
      9 N1         24.8668    4.7967   53.8610 N.pl3     1 <0>        -0.7351
     10 C7         24.9548    4.3794   52.5096 C.ar      1 <0>         0.6901
     11 N2         24.0027    4.8335   51.6729 N.ar      1 <0>        -0.7486
     12 C8         24.1259    4.4129   50.4037 C.ar      1 <0>         0.6625
     13 N3         25.0825    3.6046   49.9036 N.ar      1 <0>        -0.6985
     14 C9         26.0177    3.1695   50.7660 C.ar      1 <0>         0.4302
     15 C10        25.9955    3.5409   52.1202 C.ar      1 <0>        -0.2747
     16 C11        27.0443    2.3309   50.3387 C.ar      1 <0>        -0.1846
     17 C12        28.0256    1.8679   51.2203 C.ar      1 <0>         0.1036
     18 O1         29.0097    1.0491   50.7539 O.3       1 <0>        -0.3424
     19 C13        28.7600   -0.3543   50.7982 C.3       1 <0>         0.1166
     20 C14        27.9929    2.2424   52.5590 C.ar      1 <0>         0.0844
     21 C15        26.9785    3.0796   53.0130 C.ar      1 <0>        -0.1130
     22 O2         28.9476    1.7966   53.4343 O.3       1 <0>        -0.3395
     23 C16        30.1105    2.6015   53.5773 C.3       1 <0>         0.1318
     24 C17        31.0428    1.9415   54.5860 C.3       1 <0>        -0.0914
     25 C18        31.4806    0.5463   54.1603 C.3       1 <0>         0.1793
     26 N4         32.1978    0.5488   52.8870 N.3       1 <0>        -0.7372
     27 C19        33.5819    1.0078   53.0687 C.3       1 <0>         0.1368
     28 C20        34.3129    0.9906   51.7293 C.3       1 <0>         0.1271
     29 O3         34.2931   -0.3228   51.1689 O.3       1 <0>        -0.4158
     30 C21        32.9514   -0.7647   50.9588 C.3       1 <0>         0.1271
     31 C22        32.1867   -0.7891   52.2792 C.3       1 <0>         0.1368
     32 H1         24.8420    7.9294   57.2016 H         1 <0>         0.1577
     33 H2         25.7329    5.8839   56.1383 H         1 <0>         0.1604
     34 H3         22.8817    6.3006   52.9422 H         1 <0>         0.1534
     35 H4         25.2412    4.1215   54.5218 H         1 <0>         0.4325
     36 H5         23.3755    4.7599   49.7038 H         1 <0>         0.0576
     37 H6         27.0865    2.0267   49.2940 H         1 <0>         0.1703
     38 H7         29.6248   -0.8814   50.3971 H         1 <0>         0.0469
     39 H8         27.8700   -0.5752   50.2098 H         1 <0>         0.0469
     40 H9         28.5990   -0.6436   51.8359 H         1 <0>         0.0469
     41 H10        26.9687    3.3624   54.0630 H         1 <0>         0.1497
     42 H11        29.8017    3.5961   53.9138 H         1 <0>         0.0453
     43 H12        30.5941    2.6899   52.5993 H         1 <0>         0.0453
     44 H13        30.5319    1.8807   55.5552 H         1 <0>         0.0638
     45 H14        31.9170    2.5847   54.7479 H         1 <0>         0.0638
     46 H15        32.1580    0.1205   54.9070 H         1 <0>         0.0328
     47 H16        30.6199   -0.1224   54.0583 H         1 <0>         0.0328
     48 H17        33.5949    2.0287   53.4671 H         1 <0>         0.0404
     49 H18        34.1080    0.3577   53.7800 H         1 <0>         0.0404
     50 H19        33.8717    1.6988   51.0172 H         1 <0>         0.0542
     51 H20        35.3602    1.2750   51.8723 H         1 <0>         0.0542
     52 H21        32.4634   -0.1162   50.2212 H         1 <0>         0.0542
     53 H22        32.9951   -1.7736   50.5358 H         1 <0>         0.0542
     54 H23        31.1567   -1.1114   52.0885 H         1 <0>         0.0404
     55 H24        32.6516   -1.5178   52.9561 H         1 <0>         0.0404
@<TRIPOS>BOND
     1    1    2 1
     2    2    7 ar
     3    2    3 ar
     4    3    4 ar
     5    4    5 ar
     6    5    6 ar
     7    6    7 ar
     8    7    8 1
     9    5    9 1
    10    9   10 1
    11   10   15 ar
    12   10   11 ar
    13   11   12 ar
    14   12   13 ar
    15   13   14 ar
    16   14   15 ar
    17   15   21 ar
    18   14   16 ar
    19   16   17 ar
    20   17   18 1
    21   18   19 1
    22   17   20 ar
    23   20   21 ar
    24   20   22 1
    25   22   23 1
    26   23   24 1
    27   24   25 1
    28   25   26 1
    29   26   31 1
    30   26   27 1
    31   27   28 1
    32   28   29 1
    33   29   30 1
    34   30   31 1
    35    3   32 1
    36    4   33 1
    37    6   34 1
    38    9   35 1
    39   12   36 1
    40   16   37 1
    41   19   38 1
    42   19   39 1
    43   19   40 1
    44   21   41 1
    45   23   42 1
    46   23   43 1
    47   24   44 1
    48   24   45 1
    49   25   46 1
    50   25   47 1
    51   27   48 1
    52   27   49 1
    53   28   50 1
    54   28   51 1
    55   30   52 1
    56   30   53 1
    57   31   54 1
    58   31   55 1
@<TRIPOS>MOLECULE
Erlotinib
   52    54     0     0     0
SMALL
USER_CHARGES

@<TRIPOS>ATOM
      1 C1         18.8385    8.6744   56.0737 C.3       1 <0>         0.1145
      2 O1         19.7930    8.1009   55.1906 O.3       1 <0>        -0.4163
      3 C2         20.0979    8.9759   54.1114 C.3       1 <0>         0.1162
      4 C3         21.1178    8.3103   53.2077 C.3       1 <0>         0.1185
      5 O2         22.2956    8.0383   53.9582 O.3       1 <0>        -0.3112
      6 C4         23.0296    6.9556   53.5767 C.ar      1 <0>         0.1485
      7 C5         23.0294    6.5663   52.2340 C.ar      1 <0>        -0.2538
      8 C6         23.7732    6.2414   54.5095 C.ar      1 <0>         0.0850
      9 O3         23.7829    6.6088   55.8203 O.3       1 <0>        -0.3240
     10 C7         25.0450    6.9555   56.3879 C.3       1 <0>         0.1260
     11 C8         24.8259    7.9802   57.4824 C.3       1 <0>         0.1214
     12 O4         24.2119    9.1348   56.9226 O.3       1 <0>        -0.4247
     13 C9         23.9824   10.1319   57.9084 C.3       1 <0>         0.1191
     14 C10        24.5151    5.1389   54.0972 C.ar      1 <0>        -0.1177
     15 C11        24.5097    4.7539   52.7452 C.ar      1 <0>        -0.2973
     16 C12        23.7628    5.4673   51.7936 C.ar      1 <0>         0.4538
     17 C13        25.2294    3.6623   52.2676 C.ar      1 <0>         0.7129
     18 N1         25.2395    3.2750   50.9782 N.ar      1 <0>        -0.7587
     19 C14        24.4895    4.0314   50.1607 C.ar      1 <0>         0.6681
     20 N2         23.7507    5.1079   50.4981 N.ar      1 <0>        -0.7117
     21 N3         26.0070    2.8938   53.1694 N.pl3     1 <0>        -0.7622
     22 C15        27.1892    2.1542   53.0081 C.ar      1 <0>         0.1633
     23 C16        28.1291    2.5420   52.0531 C.ar      1 <0>        -0.1307
     24 C17        29.3040    1.8075   51.8925 C.ar      1 <0>        -0.1099
     25 C18        29.5390    0.6852   52.6868 C.ar      1 <0>        -0.1286
     26 C19        28.5991    0.2974   53.6417 C.ar      1 <0>         0.0475
     27 C20        27.4242    1.0319   53.8023 C.ar      1 <0>        -0.1581
     28 C21        28.8403   -0.8524   54.4551 C.1       1 <0>        -0.1266
     29 C22        29.0435   -1.8211   55.1409 C.1       1 <0>        -0.1340
     30 H1         18.6289    7.9766   56.8881 H         1 <0>         0.0352
     31 H2         17.9200    8.8966   55.5245 H         1 <0>         0.0352
     32 H3         19.2469    9.6000   56.4861 H         1 <0>         0.0352
     33 H4         19.1700    9.1867   53.5710 H         1 <0>         0.0455
     34 H5         20.5020    9.9039   54.5264 H         1 <0>         0.0455
     35 H6         21.3893    8.9623   52.3716 H         1 <0>         0.0610
     36 H7         20.7290    7.3622   52.8246 H         1 <0>         0.0610
     37 H8         22.4408    7.1382   51.5181 H         1 <0>         0.1678
     38 H9         25.4984    6.0430   56.7833 H         1 <0>         0.0527
     39 H10        25.6715    7.3680   55.5935 H         1 <0>         0.0527
     40 H11        25.7742    8.2845   57.9362 H         1 <0>         0.0439
     41 H12        24.1611    7.5778   58.2524 H         1 <0>         0.0439
     42 H13        23.5120   10.9986   57.4413 H         1 <0>         0.0354
     43 H14        24.9335   10.4157   58.3620 H         1 <0>         0.0354
     44 H15        23.3196    9.7234   58.6726 H         1 <0>         0.0354
     45 H16        25.0906    4.5920   54.8404 H         1 <0>         0.1460
     46 H17        24.4754    3.7472   49.1155 H         1 <0>         0.0552
     47 H18        25.6308    2.8795   54.1099 H         1 <0>         0.4478
     48 H19        27.9562    3.4149   51.4288 H         1 <0>         0.1503
     49 H20        30.0358    2.1095   51.1489 H         1 <0>         0.1380
     50 H21        30.4596    0.1229   52.5496 H         1 <0>         0.1414
     51 H22        26.6881    0.7329   54.5462 H         1 <0>         0.1383
     52 H23        29.2235   -2.6775   55.7477 H         1 <0>         0.1679
@<TRIPOS>BOND
     1    1    2 1
     2    2    3 1
     3    3    4 1
     4    4    5 1
     5    5    6 1
     6    6    7 ar
     7    7   16 ar
     8    6    8 ar
     9    8    9 1
    10    9   10 1
    11   10   11 1
    12   11   12 1
    13   12   13 1
    14    8   14 ar
    15   14   15 ar
    16   15   16 ar
    17   16   20 ar
    18   15   17 ar
    19   17   18 ar
    20   18   19 ar
    21   19   20 ar
    22   17   21 1
    23   21   22 1
    24   22   27 ar
    25   22   23 ar
    26   23   24 ar
    27   24   25 ar
    28   25   26 ar
    29   26   27 ar
    30   26   28 1
    31   28   29 3
    32    1   30 1
    33    1   31 1
    34    1   32 1
    35    3   33 1
    36    3   34 1
    37    4   35 1
    38    4   36 1
    39    7   37 1
    40   10   38 1
    41   10   39 1
    42   11   40 1
    43   11   41 1
    44   13   42 1
    45   13   43 1
    46   13   44 1
    47   14   45 1
    48   19   46 1
    49   21   47 1
    50   23   48 1
    51   24   49 1
    52   25   50 1
    53   27   51 1
    54   29   52 1
@<TRIPOS>MOLECULE
Afatinib
   59    62     0     0     0
SMALL
USER_CHARGES

@<TRIPOS>ATOM
      1 C1         27.6362    8.6545   60.6264 C.3       1 <0>         0.1473
      2 N1         26.3721    9.2427   60.1848 N.3       1 <0>        -0.7180
      3 C2         25.9447   10.2904   61.1111 C.3       1 <0>         0.1473
      4 C3         25.3437    8.2135   60.0689 C.3       1 <0>         0.1720
      5 C4         25.4733    7.4453   58.7872 C.2       1 <0>        -0.0527
      6 C5         24.5068    7.3926   57.8597 C.2       1 <0>        -0.2607
      7 C6         24.6983    6.5992   56.6092 C.2       1 <0>         0.6712
      8 O1         25.4040    5.5976   56.5929 O.2       1 <0>        -0.6067
      9 N2         23.9890    7.1570   55.5537 N.am      1 <0>        -0.4623
     10 C7         23.9261    6.6946   54.2374 C.ar      1 <0>         0.0484
     11 C8         24.6308    5.5504   53.8767 C.ar      1 <0>        -0.1381
     12 C9         23.1685    7.3633   53.2823 C.ar      1 <0>         0.0702
     13 O2         22.4664    8.4864   53.6054 O.3       1 <0>        -0.3400
     14 C10        21.0560    8.4427   53.4182 C.3       1 <0>         0.1044
     15 H1         20.8555    8.2495   52.3612 H         1 <0>         0.0657
     16 C11        20.4413    7.4352   54.3585 C.3       1 <0>        -0.1209
     17 C12        20.3805    8.2105   55.6594 C.3       1 <0>         0.1267
     18 O3         20.2155    9.5921   55.3128 O.3       1 <0>        -0.4176
     19 C13        20.4535    9.7452   53.9029 C.3       1 <0>         0.1032
     20 C14        23.1172    6.8869   51.9690 C.ar      1 <0>        -0.1641
     21 C15        23.8126    5.7445   51.5803 C.ar      1 <0>         0.4221
     22 C16        24.5741    5.0778   52.5540 C.ar      1 <0>        -0.2726
     23 N3         23.7515    5.3013   50.3124 N.ar      1 <0>        -0.7108
     24 C17        24.4561    4.1881   50.0249 C.ar      1 <0>         0.6641
     25 N4         25.2155    3.4695   50.8674 N.ar      1 <0>        -0.7469
     26 C18        25.2548    3.9407   52.1281 C.ar      1 <0>         0.6934
     27 N5         26.0449    3.2154   53.0542 N.pl3     1 <0>        -0.7287
     28 C19        27.2054    2.4394   52.9058 C.ar      1 <0>         0.1113
     29 C20        27.4413    1.3656   53.7643 C.ar      1 <0>        -0.0692
     30 C21        28.5936    0.5938   53.6154 C.ar      1 <0>        -0.0234
     31 Cl1        28.8807   -0.7283   54.6801 Cl        1 <0>        -0.0621
     32 C22        29.5100    0.8958   52.6081 C.ar      1 <0>         0.1385
     33 F1         30.6230    0.1643   52.4537 F         1 <0>        -0.1233
     34 C23        29.2741    1.9696   51.7497 C.ar      1 <0>        -0.1547
     35 C24        28.1219    2.7415   51.8986 C.ar      1 <0>        -0.1197
     36 H2         27.9502    7.8725   59.9302 H         1 <0>         0.0362
     37 H3         27.5215    8.2150   61.6210 H         1 <0>         0.0362
     38 H4         28.4149    9.4207   60.6695 H         1 <0>         0.0362
     39 H5         25.0072   10.7078   60.7598 H         1 <0>         0.0362
     40 H6         26.7057   11.0630   61.1454 H         1 <0>         0.0362
     41 H7         25.8123    9.8573   62.0969 H         1 <0>         0.0362
     42 H8         25.4310    7.5195   60.9121 H         1 <0>         0.0435
     43 H9         24.3600    8.6907   60.1420 H         1 <0>         0.0435
     44 H10        26.4044    6.9026   58.6423 H         1 <0>         0.1647
     45 H11        23.5721    7.9250   58.0024 H         1 <0>         0.1356
     46 H12        23.4546    7.9978   55.7630 H         1 <0>         0.3313
     47 H13        25.2199    5.0359   54.6330 H         1 <0>         0.1745
     48 H14        19.4245    7.1935   54.0282 H         1 <0>         0.0656
     49 H15        21.0099    6.5076   54.4646 H         1 <0>         0.0656
     50 H16        19.5539    7.8899   56.2998 H         1 <0>         0.0519
     51 H17        21.3144    8.1158   56.2237 H         1 <0>         0.0519
     52 H18        19.4831    9.9304   53.4309 H         1 <0>         0.0634
     53 H19        21.1033   10.6110   53.7473 H         1 <0>         0.0634
     54 H20        22.5182    7.4235   51.2347 H         1 <0>         0.1698
     55 H21        24.4027    3.8363   49.0017 H         1 <0>         0.0546
     56 H22        25.6994    3.2716   54.0049 H         1 <0>         0.4370
     57 H23        26.7241    1.1322   54.5483 H         1 <0>         0.1708
     58 H24        29.9861    2.2037   50.9638 H         1 <0>         0.1562
     59 H25        27.9476    3.5755   51.2235 H         1 <0>         0.1462
@<TRIPOS>BOND
     1    1    2 1
     2    2    3 1
     3    2    4 1
     4    4    5 1
     5    5    6 2
     6    6    7 1
     7    7    8 2
     8    7    9 am
     9    9   10 1
    10   10   11 ar
    11   11   22 ar
    12   10   12 ar
    13   12   13 1
    14   13   14 1
    15   14   15 1
    16   14   19 1
    17   14   16 1
    18   16   17 1
    19   17   18 1
    20   18   19 1
    21   12   20 ar
    22   20   21 ar
    23   21   22 ar
    24   22   26 ar
    25   21   23 ar
    26   23   24 ar
    27   24   25 ar
    28   25   26 ar
    29   26   27 1
    30   27   28 1
    31   28   35 ar
    32   28   29 ar
    33   29   30 ar
    34   30   31 1
    35   30   32 ar
    36   32   33 1
    37   32   34 ar
    38   34   35 ar
    39    1   36 1
    40    1   37 1
    41    1   38 1
    42    3   39 1
    43    3   40 1
    44    3   41 1
    45    4   42 1
    46    4   43 1
    47    5   44 1
    48    6   45 1
    49    9   46 1
    50   11   47 1
    51   16   48 1
    52   16   49 1
    53   17   50 1
    54   17   51 1
    55   19   52 1
    56   19   53 1
    57   20   54 1
    58   24   55 1
    59   27   56 1
    60   29   57 1
    61   34   58 1
    62   35   59 1
@<TRIPOS>MOLECULE
Lapatinib
   66    70     0     0     0
SMALL
USER_CHARGES

@<TRIPOS>ATOM
      1 C1         20.8801   13.6816   55.9177 C.3       1 <0>        -0.3636
      2 S1         21.9107   12.6335   56.9141 S.o2      1 <0>         1.3325
      3 O1         21.8115   13.0887   58.2870 O.2       1 <0>        -0.6501
      4 O2         23.1972   12.5199   56.2553 O.2       1 <0>        -0.6501
      5 C2         21.1069   11.0652   56.8049 C.3       1 <0>        -0.3271
      6 C3         21.8277    9.9914   57.5972 C.3       1 <0>         0.1951
      7 N1         21.1614    8.6994   57.5044 N.3       1 <0>        -0.8219
      8 C4         21.8653    7.7027   58.2636 C.3       1 <0>         0.1353
      9 C5         23.0319    7.1807   57.5378 C.2       1 <0>         0.2532
     10 C6         24.3311    6.9212   57.9075 C.2       1 <0>        -0.2452
     11 C7         24.9769    6.4229   56.7508 C.2       1 <0>        -0.2410
     12 C8         24.0261    6.4131   55.7569 C.2       1 <0>         0.2953
     13 O3         22.8378    6.8736   56.2284 O.3       1 <0>        -0.3587
     14 C9         24.0332    6.0291   54.3668 C.ar      1 <0>        -0.1305
     15 C10        24.8869    5.0251   53.9205 C.ar      1 <0>        -0.0775
     16 C11        23.1857    6.6606   53.4633 C.ar      1 <0>        -0.0804
     17 C12        23.1937    6.2875   52.1161 C.ar      1 <0>        -0.1797
     18 C13        24.0379    5.2863   51.6421 C.ar      1 <0>         0.4388
     19 C14        24.8891    4.6557   52.5642 C.ar      1 <0>        -0.2904
     20 N2         24.0318    4.9410   50.3427 N.ar      1 <0>        -0.7061
     21 C15        24.8816    3.9617   49.9718 C.ar      1 <0>         0.6678
     22 N3         25.7371    3.2901   50.7591 N.ar      1 <0>        -0.7549
     23 C16        25.7177    3.6606   52.0533 C.ar      1 <0>         0.7094
     24 N4         26.6046    2.9792   52.9236 N.pl3     1 <0>        -0.7608
     25 C17        27.8600    2.3846   52.7209 C.ar      1 <0>         0.1661
     26 C18        28.7215    2.8893   51.7467 C.ar      1 <0>        -0.1401
     27 C19        29.9691    2.2988   51.5454 C.ar      1 <0>        -0.1292
     28 C20        30.3552    1.2036   52.3181 C.ar      1 <0>         0.0779
     29 C21        29.4937    0.6989   53.2922 C.ar      1 <0>         0.0337
     30 Cl1        29.9457   -0.6545   54.2618 Cl        1 <0>        -0.0671
     31 C22        28.2461    1.2894   53.4935 C.ar      1 <0>        -0.1525
     32 O4         31.5804    0.6473   52.1008 O.3       1 <0>        -0.3219
     33 C23        32.7158    1.4901   52.2847 C.3       1 <0>         0.1734
     34 C24        33.9561    0.6989   52.0000 C.ar      1 <0>        -0.0685
     35 C25        34.5905    0.0026   53.0287 C.ar      1 <0>        -0.1200
     36 C26        35.7458   -0.7329   52.7640 C.ar      1 <0>        -0.1096
     37 C27        36.2667   -0.7719   51.4706 C.ar      1 <0>        -0.1559
     38 C28        35.6322   -0.0755   50.4419 C.ar      1 <0>         0.1207
     39 F1         36.1319   -0.1126   49.1997 F         1 <0>        -0.1410
     40 C29        34.4769    0.6599   50.7067 C.ar      1 <0>        -0.1414
     41 H1         20.9480   13.3467   54.8814 H         1 <0>         0.1182
     42 H2         19.8540   13.5999   56.2795 H         1 <0>         0.1182
     43 H3         21.2387   14.7076   56.0124 H         1 <0>         0.1182
     44 H4         20.0954   11.2122   57.1953 H         1 <0>         0.1161
     45 H5         21.0420   10.8118   55.7424 H         1 <0>         0.1161
     46 H6         22.8568    9.8581   57.2493 H         1 <0>         0.0531
     47 H7         21.8541   10.2601   58.6576 H         1 <0>         0.0531
     48 H8         20.2110    8.7855   57.8636 H         1 <0>         0.3657
     49 H9         21.1616    6.8956   58.4949 H         1 <0>         0.0583
     50 H10        22.1646    8.1556   59.2146 H         1 <0>         0.0583
     51 H11        24.7621    7.0717   58.8870 H         1 <0>         0.1666
     52 H12        26.0075    6.1105   56.6586 H         1 <0>         0.1609
     53 H13        25.5467    4.5363   54.6347 H         1 <0>         0.1383
     54 H14        22.5095    7.4480   53.7882 H         1 <0>         0.1533
     55 H15        22.5208    6.7975   51.4293 H         1 <0>         0.1598
     56 H16        24.8717    3.6882   48.9237 H         1 <0>         0.0570
     57 H17        26.2592    2.9112   53.8736 H         1 <0>         0.4482
     58 H18        28.4311    3.7431   51.1401 H         1 <0>         0.1479
     59 H19        30.6355    2.6976   50.7852 H         1 <0>         0.1474
     60 H20        27.5712    0.8997   54.2528 H         1 <0>         0.1554
     61 H21        32.7119    1.8644   53.3118 H         1 <0>         0.0470
     62 H22        32.6330    2.3456   51.6092 H         1 <0>         0.0470
     63 H23        34.1922    0.0265   54.0396 H         1 <0>         0.1408
     64 H24        36.2396   -1.2757   53.5648 H         1 <0>         0.1391
     65 H25        37.1664   -1.3436   51.2636 H         1 <0>         0.1491
     66 H26        33.9896    1.1995   49.8988 H         1 <0>         0.1525
@<TRIPOS>BOND
     1    1    2 1
     2    2    3 2
     3    2    4 2
     4    2    5 1
     5    5    6 1
     6    6    7 1
     7    7    8 1
     8    8    9 1
     9    9   13 1
    10    9   10 2
    11   10   11 1
    12   11   12 2
    13   12   13 1
    14   12   14 1
    15   14   15 ar
    16   15   19 ar
    17   14   16 ar
    18   16   17 ar
    19   17   18 ar
    20   18   19 ar
    21   19   23 ar
    22   18   20 ar
    23   20   21 ar
    24   21   22 ar
    25   22   23 ar
    26   23   24 1
    27   24   25 1
    28   25   31 ar
    29   25   26 ar
    30   26   27 ar
    31   27   28 ar
    32   28   29 ar
    33   29   30 1
    34   29   31 ar
    35   28   32 1
    36   32   33 1
    37   33   34 1
    38   34   40 ar
    39   34   35 ar
    40   35   36 ar
    41   36   37 ar
    42   37   38 ar
    43   38   39 1
    44   38   40 ar
    45    1   41 1
    46    1   42 1
    47    1   43 1
    48    5   44 1
    49    5   45 1
    50    6   46 1
    51    6   47 1
    52    7   48 1
    53    8   49 1
    54    8   50 1
    55   10   51 1
    56   11   52 1
    57   15   53 1
    58   16   54 1
    59   17   55 1
    60   21   56 1
    61   24   57 1
    62   26   58 1
    63   27   59 1
    64   31   60 1
    65   33   61 1
    66   33   62 1
    67   35   63 1
    68   36   64 1
    69   37   65 1
    70   40   66 1
@<TRIPOS>MOLECULE
Sorafenib
   48    50     0     0     0
SMALL
USER_CHARGES

@<TRIPOS>ATOM
      1 C1         36.9862   -0.9729   47.7930 C.3       1 <0>         0.0833
      2 N1         36.1700   -0.4669   48.8730 N.am      1 <0>        -0.5775
      3 C2         35.1388   -1.2042   49.4330 C.2       1 <0>         0.5643
      4 O1         34.8140   -2.3360   49.0837 O.2       1 <0>        -0.5663
      5 C3         34.3937   -0.5473   50.4931 C.ar      1 <0>         0.3916
      6 C4         33.3436   -1.2011   51.1174 C.ar      1 <0>        -0.2551
      7 C5         32.6644   -0.5264   52.1258 C.ar      1 <0>         0.1458
      8 C6         33.0507    0.7631   52.4741 C.ar      1 <0>        -0.2950
      9 C7         34.1139    1.3289   51.7892 C.ar      1 <0>         0.4218
     10 N2         34.7978    0.7047   50.8042 N.ar      1 <0>        -0.6336
     11 O2         31.6136   -1.1330   52.7775 O.3       1 <0>        -0.2400
     12 C8         30.4923   -0.3871   52.9740 C.ar      1 <0>         0.0394
     13 C9         29.8555   -0.3992   54.2150 C.ar      1 <0>        -0.0979
     14 C10        28.7061    0.3649   54.4165 C.ar      1 <0>        -0.1661
     15 C11        28.1934    1.1410   53.3771 C.ar      1 <0>         0.0898
     16 C12        28.8302    1.1530   52.1361 C.ar      1 <0>        -0.1661
     17 C13        29.9796    0.3889   51.9345 C.ar      1 <0>        -0.0979
     18 N3         27.0416    1.9024   53.5777 N.am      1 <0>        -0.4787
     19 C14        26.3696    2.7471   52.6607 C.2       1 <0>         0.8008
     20 O3         26.7217    2.9397   51.5014 O.2       1 <0>        -0.6075
     21 N4         25.2479    3.3261   53.2756 N.am      1 <0>        -0.4811
     22 C15        24.3129    4.2258   52.7114 C.ar      1 <0>         0.0878
     23 C16        23.2508    4.7007   53.4808 C.ar      1 <0>        -0.1218
     24 C17        22.3285    5.5873   52.9249 C.ar      1 <0>        -0.1070
     25 C18        22.4684    5.9989   51.5995 C.ar      1 <0>         0.0354
     26 Cl1        21.3080    7.0973   50.9465 Cl        1 <0>        -0.0559
     27 C19        23.5305    5.5239   50.8300 C.ar      1 <0>        -0.1263
     28 C20        24.4528    4.6374   51.3860 C.ar      1 <0>        -0.1518
     29 C21        23.7153    5.9410   49.4065 C.3       1 <0>         0.6917
     30 F1         22.7587    6.8084   48.9651 F         1 <0>        -0.2322
     31 F2         24.9042    6.5692   49.1744 F         1 <0>        -0.2322
     32 F3         23.6816    4.8847   48.5448 F         1 <0>        -0.2322
     33 H1         36.5430   -0.7058   46.8301 H         1 <0>         0.0442
     34 H2         37.0628   -2.0618   47.8553 H         1 <0>         0.0442
     35 H3         37.9918   -0.5471   47.8477 H         1 <0>         0.0442
     36 H4         36.3588    0.4624   49.2345 H         1 <0>         0.3124
     37 H5         33.0564   -2.2084   50.8327 H         1 <0>         0.1634
     38 H6         32.5394    1.3131   53.2564 H         1 <0>         0.1607
     39 H7         34.4548    2.3317   52.0244 H         1 <0>         0.0321
     40 H8         30.2507   -1.0012   55.0286 H         1 <0>         0.1559
     41 H9         28.2173    0.3475   55.3874 H         1 <0>         0.1595
     42 H10        28.4390    1.7537   51.3189 H         1 <0>         0.1595
     43 H11        30.4713    0.4030   50.9656 H         1 <0>         0.1559
     44 H12        26.6264    1.8425   54.5134 H         1 <0>         0.3172
     45 H13        25.0878    3.0670   54.2458 H         1 <0>         0.3213
     46 H14        23.1321    4.3872   54.5150 H         1 <0>         0.1896
     47 H15        21.5065    5.9484   53.5375 H         1 <0>         0.1607
     48 H16        25.2814    4.2678   50.7855 H         1 <0>         0.1498
@<TRIPOS>BOND
     1    1    2 1
     2    2    3 am
     3    3    4 2
     4    3    5 1
     5    5   10 ar
     6    5    6 ar
     7    6    7 ar
     8    7    8 ar
     9    8    9 ar
    10    9   10 ar
    11    7   11 1
    12   11   12 1
    13   12   17 ar
    14   12   13 ar
    15   13   14 ar
    16   14   15 ar
    17   15   16 ar
    18   16   17 ar
    19   15   18 1
    20   18   19 am
    21   19   20 2
    22   19   21 am
    23   21   22 1
    24   22   28 ar
    25   22   23 ar
    26   23   24 ar
    27   24   25 ar
    28   25   26 1
    29   25   27 ar
    30   27   28 ar
    31   27   29 1
    32   29   30 1
    33   29   31 1
    34   29   32 1
    35    1   33 1
    36    1   34 1
    37    1   35 1
    38    2   36 1
    39    6   37 1
    40    8   38 1
    41    9   39 1
    42   13   40 1
    43   14   41 1
    44   16   42 1
    45   17   43 1
    46   18   44 1
    47   21   45 1
    48   23   46 1
    49   24   47 1
    50   28   48 1
@<TRIPOS>MOLECULE
Sunitinib
   56    58     0     0     0
SMALL
USER_CHARGES

@<TRIPOS>ATOM
      1 C1         24.3939    8.2071   53.1772 C.3       1 <0>        -0.1127
      2 C2         23.4645    7.5370   54.1310 C.3       1 <0>         0.1568
      3 N1         23.2481    6.1384   53.7623 N.3       1 <0>        -0.7104
      4 C3         22.3350    5.4962   54.7070 C.3       1 <0>         0.1568
      5 C4         21.0267    6.1920   54.7088 C.3       1 <0>        -0.1127
      6 C5         24.4999    5.4320   53.7137 C.3       1 <0>         0.1474
      7 C6         24.3200    3.9719   53.3334 C.3       1 <0>         0.0950
      8 N2         25.5799    3.2656   53.2856 N.am      1 <0>        -0.5864
      9 C7         26.3417    3.1829   52.1309 C.2       1 <0>         0.7061
     10 O1         26.0393    3.6859   51.0520 O.2       1 <0>        -0.5968
     11 C8         27.5566    2.4247   52.2355 C.2       1 <0>        -0.2266
     12 C9         28.7644    2.6096   51.5183 C.2       1 <0>        -0.0393
     13 C10        29.0248    3.6433   50.4942 C.3       1 <0>        -0.0362
     14 C11        29.6510    1.6484   51.9511 C.2       1 <0>        -0.1489
     15 N3         29.0189    0.8925   52.9036 N.pl3     1 <0>        -0.1440
     16 C12        27.7421    1.3562   53.0848 C.2       1 <0>        -0.0366
     17 C13        26.8347    0.7191   54.0593 C.3       1 <0>        -0.0474
     18 C14        31.0036    1.3157   51.6195 C.2       1 <0>         0.0395
     19 C15        31.3948    0.1368   51.1322 C.2       1 <0>        -0.1389
     20 C16        30.4505   -1.0003   50.8687 C.2       1 <0>         0.7039
     21 O2         29.2478   -1.0076   51.0555 O.2       1 <0>        -0.5998
     22 N4         31.2704   -2.0180   50.3708 N.am      1 <0>        -0.4789
     23 C17        32.7396   -0.2932   50.7644 C.ar      1 <0>        -0.0868
     24 C18        32.6070   -1.6081   50.3088 C.ar      1 <0>         0.0516
     25 C19        33.9767    0.3223   50.7930 C.ar      1 <0>        -0.1069
     26 C20        35.0830   -0.4123   50.3529 C.ar      1 <0>         0.0909
     27 F1         36.2987    0.1514   50.3654 F         1 <0>        -0.1400
     28 C21        34.9386   -1.7360   49.8960 C.ar      1 <0>        -0.1273
     29 C22        33.6855   -2.3510   49.8702 C.ar      1 <0>        -0.1447
     30 H1         24.5531    9.2541   53.4571 H         1 <0>         0.0387
     31 H2         25.3596    7.6910   53.1456 H         1 <0>         0.0387
     32 H3         23.9667    8.1885   52.1674 H         1 <0>         0.0387
     33 H4         22.4909    8.0363   54.1325 H         1 <0>         0.0438
     34 H5         23.8713    7.5548   55.1464 H         1 <0>         0.0438
     35 H6         22.2380    4.4621   54.3875 H         1 <0>         0.0438
     36 H7         22.8179    5.5392   55.6793 H         1 <0>         0.0438
     37 H8         20.3278    5.7251   55.4112 H         1 <0>         0.0387
     38 H9         21.1395    7.2518   54.9623 H         1 <0>         0.0387
     39 H10        20.5898    6.1285   53.7050 H         1 <0>         0.0387
     40 H11        25.1429    5.9547   52.9984 H         1 <0>         0.0318
     41 H12        24.9507    5.5086   54.7080 H         1 <0>         0.0318
     42 H13        23.6938    3.4624   54.0723 H         1 <0>         0.0571
     43 H14        23.8487    3.8710   52.3504 H         1 <0>         0.0571
     44 H15        25.9192    2.8137   54.1285 H         1 <0>         0.3094
     45 H16        29.4307    4.5594   50.9518 H         1 <0>         0.0521
     46 H17        29.7457    3.2980   49.7348 H         1 <0>         0.0521
     47 H18        28.1091    3.9182   49.9448 H         1 <0>         0.0521
     48 H19        29.4269    0.1110   53.3995 H         1 <0>         0.3019
     49 H20        26.9268    1.1874   55.0529 H         1 <0>         0.0583
     50 H21        25.7780    0.7930   53.7505 H         1 <0>         0.0583
     51 H22        27.0434   -0.3582   54.1758 H         1 <0>         0.0583
     52 H23        31.7652    2.0824   51.7467 H         1 <0>         0.1483
     53 H24        30.9532   -2.9376   50.0877 H         1 <0>         0.3443
     54 H25        34.1000    1.3409   51.1439 H         1 <0>         0.1535
     55 H26        35.8150   -2.2841   49.5605 H         1 <0>         0.1522
     56 H27        33.5727   -3.3699   49.5179 H         1 <0>         0.1470
@<TRIPOS>BOND
     1    1    2 1
     2    2    3 1
     3    3    4 1
     4    4    5 1
     5    3    6 1
     6    6    7 1
     7    7    8 1
     8    8    9 am
     9    9   10 2
    10    9   11 1
    11   11   16 2
    12   11   12 1
    13   12   13 1
    14   12   14 2
    15   14   15 1
    16   15   16 1
    17   16   17 1
    18   14   18 1
    19   18   19 2
    20   19   20 1
    21   20   21 2
    22   20   22 am
    23   22   24 1
    24   19   23 1
    25   23   24 ar
    26   24   29 ar
    27   23   25 ar
    28   25   26 ar
    29   26   27 1
    30   26   28 ar
    31   28   29 ar
    32    1   30 1
    33    1   31 1
    34    1   32 1
    35    2   33 1
    36    2   34 1
    37    4   35 1
    38    4   36 1
    39    5   37 1
    40    5   38 1
    41    5   39 1
    42    6   40 1
    43    6   41 1
    44    7   42 1
    45    7   43 1
    46    8   44 1
    47   13   45 1
    48   13   46 1
    49   13   47 1
    50   15   48 1
    51   17   49 1
    52   17   50 1
    53   17   51 1
    54   18   52 1
    55   22   53 1
    56   25   54 1
    57   28   55 1
    58   29   56 1
@<TRIPOS>MOLECULE
Pazopanib
   54    57     0     0     0
SMALL
USER_CHARGES

@<TRIPOS>ATOM
      1 C1         22.1383    6.3114   50.9497 C.3       1 <0>        -0.0840
      2 C2         23.3259    5.5760   51.4790 C.ar      1 <0>         0.0260
      3 C3         23.6808    5.6449   52.8262 C.ar      1 <0>        -0.3576
      4 S1         22.7498    6.5977   53.9613 S.o2      1 <0>         1.5264
      5 O1         22.8830    7.9996   53.5957 O.2       1 <0>        -0.6608
      6 O2         21.4283    6.0015   54.0846 O.2       1 <0>        -0.6608
      7 N1         23.6179    6.3167   55.4049 N.pl3     1 <0>        -1.0259
      8 C4         24.7955    4.9466   53.2904 C.ar      1 <0>        -0.0849
      9 C5         25.5554    4.1795   52.4074 C.ar      1 <0>         0.1409
     10 C6         25.2005    4.1106   51.0601 C.ar      1 <0>        -0.0686
     11 C7         24.0858    4.8089   50.5960 C.ar      1 <0>        -0.1447
     12 N2         26.6817    3.4740   52.8759 N.pl3     1 <0>        -0.7377
     13 C8         27.2972    2.2721   52.4640 C.ar      1 <0>         0.9115
     14 N3         26.7350    1.6358   51.4188 N.ar      1 <0>        -0.7692
     15 C9         27.3492    0.4922   51.0511 C.ar      1 <0>         0.4759
     16 C10        28.4697   -0.0124   51.6790 C.ar      1 <0>        -0.4484
     17 C11        28.9484    0.7338   52.7365 C.ar      1 <0>         0.7261
     18 N4         28.3849    1.8852   53.1574 N.ar      1 <0>        -0.8110
     19 N5         30.1006    0.2503   53.4076 N.pl3     1 <0>        -0.6665
     20 C12        29.8297   -0.6482   54.5367 C.3       1 <0>         0.2076
     21 C13        31.4435    0.3549   52.9543 C.ar      1 <0>         0.1409
     22 C14        32.3777    1.0611   53.7760 C.ar      1 <0>        -0.1609
     23 C15        33.7358    1.2401   53.4467 C.ar      1 <0>        -0.0505
     24 C16        31.7790   -0.2427   51.7195 C.ar      1 <0>        -0.2192
     25 C17        33.1308   -0.0796   51.3649 C.ar      1 <0>         0.3735
     26 C18        34.0342    0.6421   52.2289 C.ar      1 <0>        -0.2208
     27 N6         33.8044   -0.5033   50.2808 N.2       1 <0>        -0.5274
     28 N7         35.0639   -0.0637   50.4682 N.pl3     1 <0>         0.1508
     29 C19        36.0601   -0.3554   49.4625 C.3       1 <0>         0.0267
     30 C20        35.2596    0.6326   51.6252 C.2       1 <0>        -0.1001
     31 C21        36.5678    1.1960   52.0092 C.3       1 <0>        -0.0310
     32 H1         21.2471    5.6797   51.0150 H         1 <0>         0.0609
     33 H2         21.9629    7.2310   51.5176 H         1 <0>         0.0609
     34 H3         22.2916    6.6005   49.9045 H         1 <0>         0.0609
     35 H4         24.1756    7.0892   55.7892 H         1 <0>         0.4465
     36 H5         23.1819    5.7231   56.1210 H         1 <0>         0.4465
     37 H6         25.0735    4.9994   54.3407 H         1 <0>         0.1597
     38 H7         25.7856    3.5159   50.3634 H         1 <0>         0.1645
     39 H8         23.8178    4.7486   49.5444 H         1 <0>         0.1406
     40 H9         27.1409    3.9175   53.6665 H         1 <0>         0.4574
     41 H10        26.9007   -0.0239   50.2088 H         1 <0>         0.0260
     42 H11        28.9337   -0.9344   51.3512 H         1 <0>         0.1646
     43 H12        29.7971   -1.6657   54.1675 H         1 <0>         0.0486
     44 H13        28.8773   -0.3768   54.9754 H         1 <0>         0.0486
     45 H14        30.6228   -0.5381   55.2659 H         1 <0>         0.0486
     46 H15        32.0250    1.4887   54.7155 H         1 <0>         0.1410
     47 H16        34.4291    1.7755   54.0801 H         1 <0>         0.1341
     48 H17        31.0630   -0.7736   51.1051 H         1 <0>         0.1538
     49 H18        36.0595    0.4613   48.7338 H         1 <0>         0.0652
     50 H19        37.0449   -0.4424   49.9334 H         1 <0>         0.0652
     51 H20        35.8171   -1.3034   48.9710 H         1 <0>         0.0652
     52 H21        36.6870    2.2229   51.6259 H         1 <0>         0.0550
     53 H22        36.6990    1.2305   53.1046 H         1 <0>         0.0550
     54 H23        37.4082    0.5946   51.6213 H         1 <0>         0.0550
@<TRIPOS>BOND
     1    1    2 1
     2    2   11 ar
     3    2    3 ar
     4    3    4 1
     5    4    5 2
     6    4    6 2
     7    4    7 1
     8    3    8 ar
     9    8    9 ar
    10    9   10 ar
    11   10   11 ar
    12    9   12 1
    13   12   13 1
    14   13   18 ar
    15   13   14 ar
    16   14   15 ar
    17   15   16 ar
    18   16   17 ar
    19   17   18 ar
    20   17   19 1
    21   19   20 1
    22   19   21 1
    23   21   22 ar
    24   22   23 ar
    25   23   26 ar
    26   21   24 ar
    27   24   25 ar
    28   25   26 ar
    29   26   30 2
    30   25   27 2
    31   27   28 1
    32   28   29 1
    33   28   30 1
    34   30   31 1
    35    1   32 1
    36    1   33 1
    37    1   34 1
    38    7   35 1
    39    7   36 1
    40    8   37 1
    41   10   38 1
    42   11   39 1
    43   12   40 1
    44   15   41 1
    45   16   42 1
    46   20   43 1
    47   20   44 1
    48   20   45 1
    49   22   46 1
    50   23   47 1
    51   24   48 1
    52   29   49 1
    53   29   50 1
    54   29   51 1
    55   31   52 1
    56   31   53 1
    57   31   54 1
@<TRIPOS>MOLECULE
Vandetanib
   54    57     0     0     0
SMALL
USER_CHARGES

@<TRIPOS>ATOM
      1 C1         23.1055    6.8117   48.2641 C.3       1 <0>         0.1518
      2 N1         23.7835    5.9204   49.2052 N.3       1 <0>        -0.7201
      3 C2         23.2118    6.0628   50.5510 C.3       1 <0>         0.1633
      4 C3         23.9461    5.1763   51.5590 C.3       1 <0>        -0.0740
      5 C4         23.9334    3.7075   51.1223 C.3       1 <0>        -0.0736
      6 C5         24.4579    3.5894   49.6873 C.3       1 <0>        -0.0740
      7 C6         23.7071    4.5287   48.7412 C.3       1 <0>         0.1633
      8 C7         24.7514    2.8438   52.0783 C.3       1 <0>         0.1343
      9 O1         26.0861    3.3158   52.0812 O.3       1 <0>        -0.3395
     10 C8         27.0737    2.3928   52.3221 C.ar      1 <0>         0.1218
     11 C9         28.0658    2.1561   51.3771 C.ar      1 <0>         0.0738
     12 C10        29.0567    1.2162   51.6429 C.ar      1 <0>        -0.1103
     13 O2         28.0780    2.8334   50.1963 O.3       1 <0>        -0.3360
     14 C11        28.8020    4.0622   50.1604 C.3       1 <0>         0.1165
     15 C12        27.0742    1.6895   53.5302 C.ar      1 <0>        -0.2048
     16 C13        28.0535    0.7432   53.8224 C.ar      1 <0>         0.4448
     17 C14        29.0503    0.5131   52.8601 C.ar      1 <0>        -0.2927
     18 N2         28.0377    0.0763   54.9897 N.ar      1 <0>        -0.7105
     19 C15        29.0243   -0.8213   55.1884 C.ar      1 <0>         0.6732
     20 N3         30.0253   -1.1247   54.3465 N.ar      1 <0>        -0.7447
     21 C16        30.0112   -0.4393   53.1877 C.ar      1 <0>         0.6967
     22 N4         31.0489   -0.7254   52.2660 N.pl3     1 <0>        -0.7180
     23 C17        32.3281   -0.1778   52.0800 C.ar      1 <0>         0.0983
     24 C18        33.1540   -0.6686   51.0687 C.ar      1 <0>        -0.1419
     25 C19        34.4254   -0.1261   50.8817 C.ar      1 <0>        -0.1080
     26 C20        34.8709    0.9071   51.7061 C.ar      1 <0>        -0.0085
     27 Br1        36.5935    1.6421   51.4529 Br        1 <0>        -0.0707
     28 C21        34.0451    1.3978   52.7174 C.ar      1 <0>        -0.1389
     29 C22        32.7737    0.8554   52.9044 C.ar      1 <0>         0.1605
     30 F1         31.9883    1.3345   53.8796 F         1 <0>        -0.1104
     31 H1         23.1660    7.8451   48.6152 H         1 <0>         0.0319
     32 H2         22.0524    6.5327   48.1711 H         1 <0>         0.0319
     33 H3         23.5736    6.7470   47.2782 H         1 <0>         0.0319
     34 H4         23.3020    7.1039   50.8841 H         1 <0>         0.0318
     35 H5         22.1426    5.8126   50.5507 H         1 <0>         0.0318
     36 H6         24.9811    5.5275   51.6656 H         1 <0>         0.0514
     37 H7         23.4738    5.2777   52.5434 H         1 <0>         0.0514
     38 H8         22.8958    3.3482   51.1432 H         1 <0>         0.0674
     39 H9         25.5299    3.8256   49.6588 H         1 <0>         0.0514
     40 H10        24.3511    2.5567   49.3342 H         1 <0>         0.0514
     41 H11        24.1611    4.4440   47.7462 H         1 <0>         0.0318
     42 H12        22.6624    4.2027   48.6512 H         1 <0>         0.0318
     43 H13        24.7366    1.8059   51.7461 H         1 <0>         0.0475
     44 H14        24.3417    2.9140   53.0857 H         1 <0>         0.0475
     45 H15        29.8249    1.0441   50.8926 H         1 <0>         0.1395
     46 H16        28.7252    4.4895   49.1615 H         1 <0>         0.0443
     47 H17        29.8432    3.8677   50.4151 H         1 <0>         0.0443
     48 H18        28.3630    4.7423   50.8890 H         1 <0>         0.0443
     49 H19        26.2889    1.8885   54.2579 H         1 <0>         0.1680
     50 H20        29.0057   -1.3551   56.1307 H         1 <0>         0.0578
     51 H21        30.8153   -1.4692   51.6191 H         1 <0>         0.4266
     52 H22        32.8168   -1.4735   50.4205 H         1 <0>         0.1418
     53 H23        35.0564   -0.5199   50.0891 H         1 <0>         0.1537
     54 H24        34.3768    2.2024   53.3686 H         1 <0>         0.1666
@<TRIPOS>BOND
     1    1    2 1
     2    2    7 1
     3    2    3 1
     4    3    4 1
     5    4    5 1
     6    5    6 1
     7    6    7 1
     8    5    8 1
     9    8    9 1
    10    9   10 1
    11   10   11 ar
    12   11   12 ar
    13   12   17 ar
    14   11   13 1
    15   13   14 1
    16   10   15 ar
    17   15   16 ar
    18   16   17 ar
    19   17   21 ar
    20   16   18 ar
    21   18   19 ar
    22   19   20 ar
    23   20   21 ar
    24   21   22 1
    25   22   23 1
    26   23   29 ar
    27   23   24 ar
    28   24   25 ar
    29   25   26 ar
    30   26   27 1
    31   26   28 ar
    32   28   29 ar
    33   29   30 1
    34    1   31 1
    35    1   32 1
    36    1   33 1
    37    3   34 1
    38    3   35 1
    39    4   36 1
    40    4   37 1
    41    5   38 1
    42    6   39 1
    43    6   40 1
    44    7   41 1
    45    7   42 1
    46    8   43 1
    47    8   44 1
    48   12   45 1
    49   14   46 1
    50   14   47 1
    51   14   48 1
    52   15   49 1
    53   19   50 1
    54   22   51 1
    55   24   52 1
    56   25   53 1
    57   28   54 1
@<TRIPOS>MOLECULE
Axitinib
   46    49     0     0     0
SMALL
USER_CHARGES

@<TRIPOS>ATOM
      1 C1         32.1695    3.0114   54.6656 C.3       1 <0>         0.0802
      2 N1         32.7363    2.3651   53.5038 N.am      1 <0>        -0.5743
      3 C2         33.3770    1.1383   53.5750 C.2       1 <0>         0.6672
      4 O1         33.5295    0.4838   54.6030 O.2       1 <0>        -0.5831
      5 C3         33.9185    0.6299   52.3196 C.ar      1 <0>        -0.1330
      6 C4         34.8806    1.4027   51.6693 C.ar      1 <0>        -0.0940
      7 C5         35.4322    0.9624   50.4661 C.ar      1 <0>        -0.1466
      8 C6         35.0216   -0.2507   49.9133 C.ar      1 <0>        -0.0971
      9 C7         34.0595   -1.0234   50.5636 C.ar      1 <0>        -0.1575
     10 C8         33.5079   -0.5831   51.7668 C.ar      1 <0>         0.0289
     11 S1         32.2786   -1.6111   52.5556 S.3       1 <0>        -0.0865
     12 C9         30.8755   -0.5062   52.5908 C.ar      1 <0>        -0.0351
     13 C10        30.3111   -0.1563   53.8218 C.ar      1 <0>        -0.0801
     14 C11        30.3619   -0.0076   51.3921 C.ar      1 <0>        -0.1082
     15 C12        29.2628    0.8605   51.3850 C.ar      1 <0>        -0.0796
     16 C13        28.6850    1.2214   52.6136 C.ar      1 <0>        -0.1736
     17 C14        29.2163    0.7105   53.7926 C.ar      1 <0>         0.0549
     18 C15        27.6123    2.0352   53.0373 C.2       1 <0>         0.3778
     19 N2         27.4647    2.0490   54.3639 N.2       1 <0>        -0.3949
     20 N3         28.4474    1.2400   54.7936 N.pl3     1 <0>        -0.3864
     21 C16        26.7697    2.7682   52.1611 C.2       1 <0>        -0.1777
     22 C17        25.7157    3.5718   52.5254 C.2       1 <0>        -0.1979
     23 C18        24.8534    4.3479   51.6167 C.ar      1 <0>         0.4457
     24 C19        23.8233    5.1189   52.1306 C.ar      1 <0>        -0.2368
     25 C20        23.0366    5.8342   51.2347 C.ar      1 <0>        -0.0928
     26 C21        23.3005    5.7578   49.8717 C.ar      1 <0>        -0.2453
     27 C22        24.3541    4.9583   49.4589 C.ar      1 <0>         0.3985
     28 N4         25.1403    4.2488   50.2993 N.ar      1 <0>        -0.6565
     29 H1         32.9153    3.6558   55.1384 H         1 <0>         0.0431
     30 H2         31.8402    2.2630   55.3915 H         1 <0>         0.0431
     31 H3         31.3095    3.6217   54.3768 H         1 <0>         0.0431
     32 H4         32.6625    2.8264   52.6030 H         1 <0>         0.3101
     33 H5         35.2092    2.3503   52.0890 H         1 <0>         0.1410
     34 H6         36.1810    1.5644   49.9593 H         1 <0>         0.1375
     35 H7         35.4515   -0.5934   48.9769 H         1 <0>         0.1362
     36 H8         33.7538   -1.9655   50.1151 H         1 <0>         0.1466
     37 H9         30.6967   -0.5338   54.7633 H         1 <0>         0.1523
     38 H10        30.8072   -0.2851   50.4387 H         1 <0>         0.1543
     39 H11        28.8748    1.2397   50.4444 H         1 <0>         0.1447
     40 H12        28.5406    1.0892   55.7903 H         1 <0>         0.4867
     41 H13        26.9918    2.7196   51.0732 H         1 <0>         0.1330
     42 H14        25.4925    3.6882   53.5832 H         1 <0>         0.1618
     43 H15        23.6233    5.1738   53.1960 H         1 <0>         0.1439
     44 H16        22.2199    6.4511   51.5975 H         1 <0>         0.1387
     45 H17        22.6997    6.3063   49.1554 H         1 <0>         0.1440
     46 H18        24.6005    4.8634   48.4065 H         1 <0>         0.0235
@<TRIPOS>BOND
     1    1    2 1
     2    2    3 am
     3    3    4 2
     4    3    5 1
     5    5   10 ar
     6    5    6 ar
     7    6    7 ar
     8    7    8 ar
     9    8    9 ar
    10    9   10 ar
    11   10   11 1
    12   11   12 1
    13   12   13 ar
    14   13   17 ar
    15   12   14 ar
    16   14   15 ar
    17   15   16 ar
    18   16   17 ar
    19   17   20 1
    20   16   18 1
    21   18   19 2
    22   19   20 1
    23   18   21 1
    24   21   22 2
    25   22   23 1
    26   23   28 ar
    27   23   24 ar
    28   24   25 ar
    29   25   26 ar
    30   26   27 ar
    31   27   28 ar
    32    1   29 1
    33    1   30 1
    34    1   31 1
    35    2   32 1
    36    6   33 1
    37    7   34 1
    38    8   35 1
    39    9   36 1
    40   13   37 1
    41   14   38 1
    42   15   39 1
    43   20   40 1
    44   21   41 1
    45   22   42 1
    46   24   43 1
    47   25   44 1
    48   26   45 1
    49   27   46 1
@<TRIPOS>MOLECULE
Regorafenib
   48    50     0     0     0
SMALL
USER_CHARGES

@<TRIPOS>ATOM
      1 C1         37.4545   -0.3291   47.9878 C.3       1 <0>         0.0766
      2 N1         36.5650    0.1059   49.0405 N.am      1 <0>        -0.5715
      3 C2         35.5296   -0.6853   49.5122 C.2       1 <0>         0.5632
      4 O1         35.2612   -1.8107   49.1000 O.2       1 <0>        -0.5614
      5 C3         34.7072   -0.0966   50.5552 C.ar      1 <0>         0.3889
      6 N2         35.0532    1.1527   50.9390 N.ar      1 <0>        -0.6317
      7 C4         34.2972    1.7136   51.9093 C.ar      1 <0>         0.4218
      8 C5         33.2171    1.0876   52.5105 C.ar      1 <0>        -0.2940
      9 C6         32.8923   -0.1970   52.0890 C.ar      1 <0>         0.1435
     10 C7         33.6465   -0.8075   51.0931 C.ar      1 <0>        -0.2493
     11 O2         31.8274   -0.8618   52.6555 O.3       1 <0>        -0.2401
     12 C8         30.6736   -0.1585   52.8195 C.ar      1 <0>         0.0729
     13 C9         29.9701   -0.2405   54.0212 C.ar      1 <0>        -0.1437
     14 C10        28.7884    0.4815   54.1883 C.ar      1 <0>         0.1124
     15 F1         28.1218    0.3961   55.3484 F         1 <0>        -0.1181
     16 C11        28.3100    1.2853   53.1535 C.ar      1 <0>         0.0484
     17 C12        29.0135    1.3672   51.9518 C.ar      1 <0>        -0.1452
     18 C13        30.1952    0.6453   51.7848 C.ar      1 <0>        -0.1153
     19 N3         27.1282    2.0083   53.3182 N.am      1 <0>        -0.4792
     20 C14        26.4842    2.8710   52.3979 C.2       1 <0>         0.7943
     21 O3         26.8939    3.1183   51.2682 O.2       1 <0>        -0.5889
     22 N4         25.3148    3.3962   52.9706 N.am      1 <0>        -0.4792
     23 C15        24.3874    4.2931   52.3897 C.ar      1 <0>         0.0822
     24 C16        24.5884    4.7611   51.0911 C.ar      1 <0>        -0.1461
     25 C17        23.6741    5.6459   50.5193 C.ar      1 <0>        -0.1312
     26 C18        23.9248    6.1235   49.1253 C.3       1 <0>         0.6924
     27 F2         25.0615    5.6110   48.5707 F         1 <0>        -0.2316
     28 F3         22.9247    5.8044   48.2535 F         1 <0>        -0.2316
     29 F4         24.0581    7.4787   49.0540 F         1 <0>        -0.2316
     30 C19        22.5589    6.0628   51.2461 C.ar      1 <0>         0.0316
     31 Cl1        21.4053    7.1544   50.5704 Cl        1 <0>        -0.0561
     32 C20        22.3580    5.5948   52.5447 C.ar      1 <0>        -0.1042
     33 C21        23.2723    4.7100   53.1165 C.ar      1 <0>        -0.1183
     34 H1         37.0556   -0.0352   47.0134 H         1 <0>         0.0455
     35 H2         37.5630   -1.4169   48.0101 H         1 <0>         0.0455
     36 H3         38.4413    0.1242   48.1153 H         1 <0>         0.0455
     37 H4         36.7037    1.0243   49.4492 H         1 <0>         0.3088
     38 H5         34.5914    2.7162   52.2018 H         1 <0>         0.0332
     39 H6         32.6465    1.5883   53.2847 H         1 <0>         0.1588
     40 H7         33.4080   -1.8100   50.7523 H         1 <0>         0.1670
     41 H8         30.3377   -0.8648   54.8311 H         1 <0>         0.1719
     42 H9         28.6508    1.9911   51.1387 H         1 <0>         0.1589
     43 H10        30.7392    0.7147   50.8467 H         1 <0>         0.1606
     44 H11        26.6640    1.9007   54.2263 H         1 <0>         0.3214
     45 H12        25.1089    3.0948   53.9198 H         1 <0>         0.3212
     46 H13        25.4578    4.4359   50.5236 H         1 <0>         0.1545
     47 H14        21.4945    5.9093   53.1254 H         1 <0>         0.1606
     48 H15        23.1048    4.3514   54.1291 H         1 <0>         0.1869
@<TRIPOS>BOND
     1    1    2 1
     2    2    3 am
     3    3    4 2
     4    3    5 1
     5    5   10 ar
     6    5    6 ar
     7    6    7 ar
     8    7    8 ar
     9    8    9 ar
    10    9   10 ar
    11    9   11 1
    12   11   12 1
    13   12   18 ar
    14   12   13 ar
    15   13   14 ar
    16   14   15 1
    17   14   16 ar
    18   16   17 ar
    19   17   18 ar
    20   16   19 1
    21   19   20 am
    22   20   21 2
    23   20   22 am
    24   22   23 1
    25   23   33 ar
    26   23   24 ar
    27   24   25 ar
    28   25   26 1
    29   26   27 1
    30   26   28 1
    31   26   29 1
    32   25   30 ar
    33   30   31 1
    34   30   32 ar
    35   32   33 ar
    36    1   34 1
    37    1   35 1
    38    1   36 1
    39    2   37 1
    40    7   38 1
    41    8   39 1
    42   10   40 1
    43   13   41 1
    44   17   42 1
    45   18   43 1
    46   19   44 1
    47   22   45 1
    48   24   46 1
    49   32   47 1
    50   33   48 1
@<TRIPOS>MOLECULE
Crizotinib
   52    55     0     0     0
SMALL
USER_CHARGES

@<TRIPOS>ATOM
      1 Cl1        34.1754    1.0607   52.4945 Cl        1 <0>        -0.0613
      2 C1         33.7704   -0.0834   51.2647 C.ar      1 <0>        -0.0041
      3 C2         34.7840   -0.8778   50.7288 C.ar      1 <0>         0.1309
      4 F1         36.0489   -0.7585   51.1574 F         1 <0>        -0.1221
      5 C3         34.4874   -1.8103   49.7348 C.ar      1 <0>        -0.1460
      6 C4         33.1772   -1.9484   49.2766 C.ar      1 <0>        -0.1074
      7 C5         32.1636   -1.1539   49.8126 C.ar      1 <0>         0.0311
      8 Cl2        30.5557   -1.3600   49.2168 Cl        1 <0>        -0.0623
      9 C6         32.4602   -0.2214   50.8066 C.ar      1 <0>        -0.0415
     10 C7         31.3621    0.6386   51.3853 C.3       1 <0>         0.1868
     11 H1         31.5765    0.9022   52.4278 H         1 <0>         0.0632
     12 C8         31.1463    1.9184   50.5897 C.3       1 <0>        -0.1298
     13 O1         30.1543   -0.1134   51.3807 O.3       1 <0>        -0.3278
     14 C9         29.2546    0.1687   52.3586 C.ar      1 <0>        -0.0470
     15 C10        29.2638   -0.4830   53.5813 C.ar      1 <0>         0.6169
     16 N1         30.2535   -1.4744   53.7978 N.pl3     1 <0>        -0.9132
     17 N2         28.3868   -0.2323   54.5791 N.ar      1 <0>        -0.7067
     18 C11        27.4567    0.7182   54.3361 C.ar      1 <0>         0.4163
     19 C12        27.3629    1.4263   53.1488 C.ar      1 <0>        -0.1274
     20 C13        28.2828    1.1402   52.1462 C.ar      1 <0>        -0.1166
     21 C14        26.3523    2.4205   52.9606 C.2       1 <0>        -0.2062
     22 C15        25.8121    3.1897   54.0086 C.2       1 <0>        -0.1323
     23 N3         24.8833    4.0529   53.5889 N.pl3     1 <0>         0.0915
     24 N4         24.8348    3.8289   52.2646 N.2       1 <0>        -0.5096
     25 C16        25.6950    2.8604   51.8377 C.2       1 <0>         0.3061
     26 C17        24.0506    5.0417   54.2815 C.3       1 <0>         0.0672
     27 C18        24.3853    6.4864   53.8785 C.3       1 <0>        -0.0928
     28 C19        23.4799    7.4798   54.6063 C.3       1 <0>         0.1658
     29 N5         22.0650    7.1834   54.3787 N.3       1 <0>        -0.8290
     30 C20        21.7183    5.8365   54.8340 C.3       1 <0>         0.1658
     31 C21        22.5468    4.7714   54.1158 C.3       1 <0>        -0.0928
     32 H2         35.2769   -2.4285   49.3180 H         1 <0>         0.1605
     33 H3         32.9631   -2.6803   48.5016 H         1 <0>         0.1579
     34 H4         30.3477    2.5290   51.0228 H         1 <0>         0.0580
     35 H5         30.8920    1.7069   49.5450 H         1 <0>         0.0580
     36 H6         32.0672    2.5115   50.5698 H         1 <0>         0.0580
     37 H7         30.3026   -1.9183   54.6886 H         1 <0>         0.4095
     38 H8         30.9344   -1.6366   53.0885 H         1 <0>         0.4095
     39 H9         26.7691    0.8941   55.1584 H         1 <0>         0.0202
     40 H10        28.2496    1.6695   51.1964 H         1 <0>         0.1455
     41 H11        26.0679    3.1460   55.0602 H         1 <0>         0.1797
     42 H12        25.7430    2.5934   50.7932 H         1 <0>         0.0427
     43 H13        24.3145    4.9086   55.3627 H         1 <0>         0.0783
     44 H14        25.4354    6.7070   54.1065 H         1 <0>         0.0624
     45 H15        24.2689    6.6098   52.7931 H         1 <0>         0.0624
     46 H16        23.6979    7.4742   55.6813 H         1 <0>         0.0339
     47 H17        23.6923    8.4908   54.2417 H         1 <0>         0.0339
     48 H18        21.4953    7.8641   54.8805 H         1 <0>         0.3710
     49 H19        21.8577    5.7576   55.9192 H         1 <0>         0.0339
     50 H20        20.6560    5.6580   54.6348 H         1 <0>         0.0339
     51 H21        22.2965    3.7793   54.5113 H         1 <0>         0.0624
     52 H22        22.2828    4.7576   53.0497 H         1 <0>         0.0624
@<TRIPOS>BOND
     1    1    2 1
     2    2    9 ar
     3    2    3 ar
     4    3    4 1
     5    3    5 ar
     6    5    6 ar
     7    6    7 ar
     8    7    8 1
     9    7    9 ar
    10    9   10 1
    11   10   11 1
    12   10   12 1
    13   10   13 1
    14   13   14 1
    15   14   20 ar
    16   14   15 ar
    17   15   16 1
    18   15   17 ar
    19   17   18 ar
    20   18   19 ar
    21   19   20 ar
    22   19   21 1
    23   21   25 1
    24   21   22 2
    25   22   23 1
    26   23   24 1
    27   24   25 2
    28   23   26 1
    29   26   31 1
    30   26   27 1
    31   27   28 1
    32   28   29 1
    33   29   30 1
    34   30   31 1
    35    5   32 1
    36    6   33 1
    37   12   34 1
    38   12   35 1
    39   12   36 1
    40   16   37 1
    41   16   38 1
    42   18   39 1
    43   20   40 1
    44   22   41 1
    45   25   42 1
    46   26   43 1
    47   27   44 1
    48   27   45 1
    49   28   46 1
    50   28   47 1
    51   29   48 1
    52   30   49 1
    53   30   50 1
    54   31   51 1
    55   31   52 1
@<TRIPOS>MOLECULE
Ceritinib
   74    77     0     0     0
SMALL
USER_CHARGES

@<TRIPOS>ATOM
      1 C1         22.1775    6.5550   54.4695 C.3       1 <0>        -0.1114
      2 C2         21.2525    7.7145   54.8401 C.3       1 <0>         0.1451
      3 N1         20.9179    8.5282   53.6709 N.3       1 <0>        -0.7913
      4 C3         22.1173    9.0845   53.0440 C.3       1 <0>         0.1451
      5 C4         23.0789    7.9827   52.5981 C.3       1 <0>        -0.1114
      6 C5         23.4497    7.0652   53.7741 C.3       1 <0>        -0.0154
      7 C6         24.3690    5.9308   53.3513 C.ar      1 <0>        -0.0709
      8 C7         24.2790    5.4353   52.0506 C.ar      1 <0>        -0.1403
      9 C8         25.1131    4.3949   51.6413 C.ar      1 <0>         0.0593
     10 O1         25.0094    3.9244   50.3662 O.3       1 <0>        -0.3548
     11 C9         23.7474    3.3888   49.9744 C.3       1 <0>         0.1406
     12 C10        23.2100    4.1873   48.7973 C.3       1 <0>        -0.1091
     13 C11        23.9142    1.9164   49.6331 C.3       1 <0>        -0.1091
     14 C12        26.0372    3.8500   52.5328 C.ar      1 <0>         0.1597
     15 C13        26.1272    4.3455   53.8336 C.ar      1 <0>        -0.1321
     16 C14        25.2931    5.3860   54.2429 C.ar      1 <0>        -0.0620
     17 C15        25.4076    5.9004   55.6403 C.3       1 <0>        -0.0571
     18 N2         26.8874    2.7964   52.1319 N.pl3     1 <0>        -0.7353
     19 C16        27.4781    1.7296   52.8345 C.ar      1 <0>         0.9191
     20 N3         26.7990    1.2607   53.8986 N.ar      1 <0>        -0.7424
     21 C17        27.3938    0.2389   54.5485 C.ar      1 <0>         0.4902
     22 C18        28.6056   -0.3055   54.1751 C.ar      1 <0>        -0.3346
     23 Cl1        29.2833   -1.6060   55.0662 Cl        1 <0>        -0.0431
     24 C19        29.2001    0.2641   53.0677 C.ar      1 <0>         0.7256
     25 N4         28.6623    1.2865   52.3707 N.ar      1 <0>        -0.7889
     26 N5         30.4464   -0.2437   52.6256 N.pl3     1 <0>        -0.7565
     27 C20        31.7109    0.3480   52.4742 C.ar      1 <0>         0.2934
     28 C21        32.0686    1.4003   53.3170 C.ar      1 <0>        -0.1849
     29 C22        33.3185    2.0053   53.1854 C.ar      1 <0>        -0.0414
     30 C23        34.2107    1.5581   52.2109 C.ar      1 <0>        -0.1831
     31 C24        33.8529    0.5058   51.3680 C.ar      1 <0>        -0.0125
     32 C25        32.6030   -0.0992   51.4997 C.ar      1 <0>        -0.4359
     33 S1         32.1907   -1.4152   50.4207 S.o2      1 <0>         1.3679
     34 O2         33.3611   -1.7051   49.6073 O.2       1 <0>        -0.6585
     35 O3         31.5635   -2.4751   51.1953 O.2       1 <0>        -0.6585
     36 C26        30.9384   -0.7336   49.3595 C.3       1 <0>        -0.2704
     37 C27        30.4781   -1.7784   48.3559 C.3       1 <0>        -0.0757
     38 C28        31.4620    0.5144   48.6672 C.3       1 <0>        -0.0757
     39 H1         21.6413    5.8563   53.8126 H         1 <0>         0.0478
     40 H2         22.4413    5.9921   55.3735 H         1 <0>         0.0478
     41 H3         20.3272    7.3185   55.2728 H         1 <0>         0.0532
     42 H4         21.7163    8.3416   55.6110 H         1 <0>         0.0532
     43 H5         20.4307    7.9442   52.9907 H         1 <0>         0.3498
     44 H6         21.8193    9.6821   52.1756 H         1 <0>         0.0532
     45 H7         22.6179    9.7692   53.7392 H         1 <0>         0.0532
     46 H8         22.6151    7.3976   51.7920 H         1 <0>         0.0478
     47 H9         23.9834    8.4353   52.1730 H         1 <0>         0.0478
     48 H10        24.0270    7.6721   54.5153 H         1 <0>         0.0580
     49 H11        23.5596    5.8579   51.3532 H         1 <0>         0.1426
     50 H12        23.0697    3.4926   50.8275 H         1 <0>         0.0554
     51 H13        22.2395    3.8035   48.4683 H         1 <0>         0.0459
     52 H14        23.0948    5.2413   49.0720 H         1 <0>         0.0459
     53 H15        23.9041    4.1576   47.9501 H         1 <0>         0.0459
     54 H16        22.9631    1.4702   49.3271 H         1 <0>         0.0459
     55 H17        24.2970    1.3650   50.4987 H         1 <0>         0.0459
     56 H18        24.6418    1.7785   48.8257 H         1 <0>         0.0459
     57 H19        26.8473    3.9216   54.5300 H         1 <0>         0.1482
     58 H20        26.1387    6.7158   55.6862 H         1 <0>         0.0472
     59 H21        24.4431    6.2746   56.0052 H         1 <0>         0.0472
     60 H22        25.7240    5.1078   56.3297 H         1 <0>         0.0472
     61 H23        27.1163    2.8145   51.1431 H         1 <0>         0.4750
     62 H24        26.8407   -0.1339   55.4052 H         1 <0>         0.0428
     63 H25        30.4117   -1.2237   52.3702 H         1 <0>         0.4761
     64 H26        31.3824    1.7585   54.0804 H         1 <0>         0.1706
     65 H27        33.5963    2.8256   53.8409 H         1 <0>         0.1403
     66 H28        35.1831    2.0305   52.1070 H         1 <0>         0.1446
     67 H29        34.5561    0.1667   50.6119 H         1 <0>         0.1651
     68 H30        30.1070   -0.4662   50.0188 H         1 <0>         0.1153
     69 H31        29.7059   -1.3695   47.6962 H         1 <0>         0.0519
     70 H32        31.3093   -2.1282   47.7338 H         1 <0>         0.0519
     71 H33        30.0583   -2.6520   48.8661 H         1 <0>         0.0519
     72 H34        30.6986    0.9434   48.0102 H         1 <0>         0.0519
     73 H35        32.3487    0.2935   48.0628 H         1 <0>         0.0519
     74 H36        31.7449    1.2778   49.3999 H         1 <0>         0.0519
@<TRIPOS>BOND
     1    1    6 1
     2    1    2 1
     3    2    3 1
     4    3    4 1
     5    4    5 1
     6    5    6 1
     7    6    7 1
     8    7   16 ar
     9    7    8 ar
    10    8    9 ar
    11    9   10 1
    12   10   11 1
    13   11   12 1
    14   11   13 1
    15    9   14 ar
    16   14   15 ar
    17   15   16 ar
    18   16   17 1
    19   14   18 1
    20   18   19 1
    21   19   25 ar
    22   19   20 ar
    23   20   21 ar
    24   21   22 ar
    25   22   23 1
    26   22   24 ar
    27   24   25 ar
    28   24   26 1
    29   26   27 1
    30   27   32 ar
    31   27   28 ar
    32   28   29 ar
    33   29   30 ar
    34   30   31 ar
    35   31   32 ar
    36   32   33 1
    37   33   34 2
    38   33   35 2
    39   33   36 1
    40   36   37 1
    41   36   38 1
    42    1   39 1
    43    1   40 1
    44    2   41 1
    45    2   42 1
    46    3   43 1
    47    4   44 1
    48    4   45 1
    49    5   46 1
    50    5   47 1
    51    6   48 1
    52    8   49 1
    53   11   50 1
    54   12   51 1
    55   12   52 1
    56   12   53 1
    57   13   54 1
    58   13   55 1
    59   13   56 1
    60   15   57 1
    61   17   58 1
    62   17   59 1
    63   17   60 1
    64   18   61 1
    65   21   62 1
    66   26   63 1
    67   28   64 1
    68   29   65 1
    69   30   66 1
    70   31   67 1
    71   36   68 1
    72   37   69 1
    73   37   70 1
    74   37   71 1
    75   38   72 1
    76   38   73 1
    77   38   74 1
@<TRIPOS>MOLECULE
Vemurafenib
   51    54     0     0     0
SMALL
USER_CHARGES

@<TRIPOS>ATOM
      1 C1         20.5457    9.6682   53.1795 C.3       1 <0>        -0.0973
      2 C2         21.5765    8.8459   53.9346 C.3       1 <0>        -0.0541
      3 C3         21.0133    7.4986   54.3551 C.3       1 <0>        -0.3274
      4 S1         22.2222    6.5383   55.2388 S.o2      1 <0>         1.4540
      5 O1         21.7905    5.1545   55.1728 O.2       1 <0>        -0.6414
      6 O2         22.4498    7.1790   56.5189 O.2       1 <0>        -0.6414
      7 N1         23.5779    6.7242   54.2017 N.pl3     1 <0>        -0.7731
      8 C4         23.7558    5.7669   53.1574 C.ar      1 <0>         0.0994
      9 C5         22.7681    5.6077   52.1852 C.ar      1 <0>        -0.1119
     10 C6         22.9387    4.6728   51.1642 C.ar      1 <0>        -0.1586
     11 C7         24.0969    3.8970   51.1153 C.ar      1 <0>         0.1595
     12 F1         24.2491    3.0018   50.1291 F         1 <0>        -0.1215
     13 C8         25.0845    4.0562   52.0875 C.ar      1 <0>        -0.2107
     14 C9         24.9139    4.9911   53.1085 C.ar      1 <0>         0.1508
     15 F2         25.8636    5.1450   54.0438 F         1 <0>        -0.1203
     16 C10        26.3137    3.2328   52.0355 C.2       1 <0>         0.6288
     17 O3         27.0408    3.3035   51.0496 O.2       1 <0>        -0.5109
     18 C11        26.6748    2.3537   53.1106 C.2       1 <0>        -0.2253
     19 C12        25.9363    2.1951   54.2634 C.2       1 <0>         0.0814
     20 N2         26.5809    1.2842   55.0595 N.pl3     1 <0>        -0.6652
     21 C13        27.7222    0.8547   54.4351 C.ar      1 <0>         0.5409
     22 C14        27.8107    1.5073   53.2089 C.ar      1 <0>        -0.1542
     23 N3         28.5882   -0.0426   54.9429 N.ar      1 <0>        -0.6606
     24 C15        29.6338   -0.2899   54.1201 C.ar      1 <0>         0.4231
     25 C16        29.8462    0.2875   52.8754 C.ar      1 <0>        -0.1684
     26 C17        28.9178    1.2107   52.3976 C.ar      1 <0>        -0.0325
     27 C18        31.0079   -0.0611   52.0902 C.ar      1 <0>        -0.0283
     28 C19        30.9455   -0.0218   50.6972 C.ar      1 <0>        -0.1127
     29 C20        32.0669   -0.3583   49.9391 C.ar      1 <0>        -0.1227
     30 C21        33.2507   -0.7342   50.5739 C.ar      1 <0>         0.0189
     31 Cl1        34.6344   -1.1495   49.6386 Cl        1 <0>        -0.0923
     32 C22        33.3131   -0.7736   51.9668 C.ar      1 <0>        -0.1227
     33 C23        32.1916   -0.4371   52.7249 C.ar      1 <0>        -0.1127
     34 H1         20.9712   10.6331   52.8864 H         1 <0>         0.0416
     35 H2         20.2200    9.1506   52.2715 H         1 <0>         0.0416
     36 H3         19.6650    9.8599   53.8009 H         1 <0>         0.0416
     37 H4         21.9102    9.4036   54.8176 H         1 <0>         0.0606
     38 H5         22.4600    8.7005   53.3017 H         1 <0>         0.0606
     39 H6         20.1530    7.6168   55.0207 H         1 <0>         0.1157
     40 H7         20.7089    6.9057   53.4875 H         1 <0>         0.1157
     41 H8         24.4543    6.9937   54.6688 H         1 <0>         0.4676
     42 H9         21.8621    6.2074   52.2143 H         1 <0>         0.1732
     43 H10        22.1700    4.5488   50.4072 H         1 <0>         0.1646
     44 H11        25.0101    2.6470   54.5911 H         1 <0>         0.1772
     45 H12        26.2639    0.9764   55.9684 H         1 <0>         0.4720
     46 H13        30.3394   -1.0153   54.5207 H         1 <0>         0.0285
     47 H14        29.0412    1.6887   51.4301 H         1 <0>         0.1675
     48 H15        30.0298    0.2690   50.1878 H         1 <0>         0.1417
     49 H16        32.0040   -0.3232   48.8544 H         1 <0>         0.1489
     50 H17        34.2290   -1.0647   52.4748 H         1 <0>         0.1489
     51 H18        32.2558   -0.4727   53.8099 H         1 <0>         0.1417
@<TRIPOS>BOND
     1    1    2 1
     2    2    3 1
     3    3    4 1
     4    4    5 2
     5    4    6 2
     6    4    7 1
     7    7    8 1
     8    8   14 ar
     9    8    9 ar
    10    9   10 ar
    11   10   11 ar
    12   11   12 1
    13   11   13 ar
    14   13   14 ar
    15   14   15 1
    16   13   16 1
    17   16   17 2
    18   16   18 1
    19   18   22 1
    20   18   19 2
    21   19   20 1
    22   20   21 1
    23   21   22 ar
    24   22   26 ar
    25   21   23 ar
    26   23   24 ar
    27   24   25 ar
    28   25   26 ar
    29   25   27 1
    30   27   33 ar
    31   27   28 ar
    32   28   29 ar
    33   29   30 ar
    34   30   31 1
    35   30   32 ar
    36   32   33 ar
    37    1   34 1
    38    1   35 1
    39    1   36 1
    40    2   37 1
    41    2   38 1
    42    3   39 1
    43    3   40 1
    44    7   41 1
    45    9   42 1
    46   10   43 1
    47   19   44 1
    48   20   45 1
    49   24   46 1
    50   26   47 1
    51   28   48 1
    52   29   49 1
    53   32   50 1
    54   33   51 1
@<TRIPOS>MOLECULE
Dabrafenib
   55    58     0     0     0
SMALL
USER_CHARGES

@<TRIPOS>ATOM
      1 N1         25.1922    4.1972   47.4001 N.pl3     1 <0>        -0.9667
      2 C1         24.3871    3.8151   48.4953 C.ar      1 <0>         0.8932
      3 N2         24.7169    4.3333   49.6938 N.ar      1 <0>        -0.7654
      4 C2         23.9275    3.9473   50.7176 C.ar      1 <0>         0.5616
      5 C3         22.8565    3.0882   50.5783 C.ar      1 <0>        -0.4074
      6 C4         22.6235    2.6272   49.2987 C.ar      1 <0>         0.4696
      7 N3         23.3715    2.9716   48.2299 N.ar      1 <0>        -0.7537
      8 C5         24.2840    4.5058   52.0004 C.2       1 <0>        -0.2641
      9 S1         23.1385    5.4682   52.8388 S.3       1 <0>        -0.0305
     10 C6         24.2781    5.6785   54.1045 C.2       1 <0>         0.3991
     11 C7         23.8903    6.5287   55.3256 C.3       1 <0>        -0.0848
     12 C8         22.6575    5.9096   56.0192 C.3       1 <0>        -0.0889
     13 C9         23.5498    7.9648   54.8720 C.3       1 <0>        -0.0889
     14 C10        25.0053    6.6390   56.3902 C.3       1 <0>        -0.0889
     15 N4         25.4416    5.0867   53.9490 N.2       1 <0>        -0.6055
     16 C11        25.4430    4.4145   52.7424 C.2       1 <0>         0.4078
     17 C12        26.5985    3.6763   52.3128 C.ar      1 <0>        -0.1365
     18 C13        27.2383    4.0217   51.1224 C.ar      1 <0>        -0.0847
     19 C14        28.3603    3.3081   50.7012 C.ar      1 <0>        -0.1292
     20 C15        28.8426    2.2491   51.4704 C.ar      1 <0>        -0.1097
     21 C16        28.2027    1.9037   52.6608 C.ar      1 <0>         0.0961
     22 C17        27.0807    2.6173   53.0819 C.ar      1 <0>         0.1419
     23 F1         26.4687    2.2804   54.2282 F         1 <0>        -0.1261
     24 N5         28.6990    0.8184   53.4447 N.pl3     1 <0>        -0.7810
     25 S2         29.8796    1.1419   54.6569 S.o2      1 <0>         1.5139
     26 O1         29.7933    2.5389   55.0395 O.2       1 <0>        -0.6307
     27 O2         29.8394    0.1118   55.6770 O.2       1 <0>        -0.6307
     28 C18        31.3900    0.9498   53.7544 C.ar      1 <0>        -0.4337
     29 C19        31.4520    0.0633   52.6792 C.ar      1 <0>         0.2591
     30 F2         30.3746   -0.6488   52.3204 F         1 <0>        -0.1093
     31 C20        32.6424   -0.0882   51.9681 C.ar      1 <0>        -0.2116
     32 C21        33.7707    0.6468   52.3320 C.ar      1 <0>        -0.0245
     33 C22        33.7085    1.5333   53.4072 C.ar      1 <0>        -0.2116
     34 C23        32.5182    1.6848   54.1184 C.ar      1 <0>         0.2591
     35 F3         32.4707    2.5400   55.1494 F         1 <0>        -0.1093
     36 H1         25.9415    4.8651   47.5250 H         1 <0>         0.4493
     37 H2         24.9681    3.8800   46.4661 H         1 <0>         0.4493
     38 H3         22.2310    2.7871   51.4094 H         1 <0>         0.1614
     39 H4         21.8037    1.9478   49.0910 H         1 <0>         0.0280
     40 H5         22.3597    6.4979   56.8950 H         1 <0>         0.0443
     41 H6         21.7878    5.8626   55.3546 H         1 <0>         0.0443
     42 H7         22.8675    4.8884   56.3589 H         1 <0>         0.0443
     43 H8         23.2667    8.6087   55.7118 H         1 <0>         0.0443
     44 H9         24.4080    8.4382   54.3808 H         1 <0>         0.0443
     45 H10        22.7156    7.9663   54.1605 H         1 <0>         0.0443
     46 H11        24.6817    7.2534   57.2390 H         1 <0>         0.0443
     47 H12        25.2796    5.6561   56.7908 H         1 <0>         0.0443
     48 H13        25.9090    7.1057   55.9812 H         1 <0>         0.0443
     49 H14        26.8749    4.8444   50.5111 H         1 <0>         0.1531
     50 H15        28.8588    3.5771   49.7744 H         1 <0>         0.1443
     51 H16        29.7178    1.6994   51.1338 H         1 <0>         0.1477
     52 H17        28.0031    0.0942   53.6857 H         1 <0>         0.4668
     53 H18        32.6902   -0.7787   51.1312 H         1 <0>         0.1619
     54 H19        34.6972    0.5288   51.7779 H         1 <0>         0.1493
     55 H20        34.5872    2.1051   53.6908 H         1 <0>         0.1619
@<TRIPOS>BOND
     1    1    2 1
     2    2    7 ar
     3    2    3 ar
     4    3    4 ar
     5    4    5 ar
     6    5    6 ar
     7    6    7 ar
     8    4    8 1
     9    8   16 2
    10    8    9 1
    11    9   10 1
    12   10   11 1
    13   11   12 1
    14   11   13 1
    15   11   14 1
    16   10   15 2
    17   15   16 1
    18   16   17 1
    19   17   22 ar
    20   17   18 ar
    21   18   19 ar
    22   19   20 ar
    23   20   21 ar
    24   21   22 ar
    25   22   23 1
    26   21   24 1
    27   24   25 1
    28   25   26 2
    29   25   27 2
    30   25   28 1
    31   28   34 ar
    32   28   29 ar
    33   29   30 1
    34   29   31 ar
    35   31   32 ar
    36   32   33 ar
    37   33   34 ar
    38   34   35 1
    39    1   36 1
    40    1   37 1
    41    5   38 1
    42    6   39 1
    43   12   40 1
    44   12   41 1
    45   12   42 1
    46   13   43 1
    47   13   44 1
    48   13   45 1
    49   14   46 1
    50   14   47 1
    51   14   48 1
    52   18   49 1
    53   19   50 1
    54   20   51 1
    55   24   52 1
    56   31   53 1
    57   32   54 1
    58   33   55 1
@<TRIPOS>MOLECULE
Ruxolitinib
   41    44     0     0     0
SMALL
USER_CHARGES

@<TRIPOS>ATOM
      1 C1         35.6418   -0.3063   50.1553 C.2       1 <0>        -0.1585
      2 C2         36.5591   -0.7684   49.2355 C.2       1 <0>        -0.0004
      3 N1         35.9501   -1.7332   48.4746 N.pl3     1 <0>        -0.6775
      4 C3         34.6559   -1.8952   48.8923 C.ar      1 <0>         0.5701
      5 C4         34.4317   -1.0155   49.9443 C.ar      1 <0>        -0.3121
      6 N2         33.7706   -2.7591   48.3656 N.ar      1 <0>        -0.6994
      7 C5         32.5814   -2.6791   48.9965 C.ar      1 <0>         0.6409
      8 N3         32.2220   -1.8785   50.0251 N.ar      1 <0>        -0.7080
      9 C6         33.1581   -1.0309   50.5111 C.ar      1 <0>         0.5812
     10 C7         32.8117   -0.1686   51.5979 C.2       1 <0>        -0.3306
     11 C8         33.5894    0.3735   52.6386 C.2       1 <0>         0.3412
     12 N4         32.8785    1.1445   53.4658 N.2       1 <0>        -0.5193
     13 N5         31.6408    1.0904   52.9450 N.pl3     1 <0>         0.0818
     14 C9         31.5472    0.3169   51.8256 C.2       1 <0>        -0.1074
     15 C10        30.5072    1.8550   53.6113 C.3       1 <0>         0.0896
     16 H1         29.7823    2.1432   52.8368 H         1 <0>         0.0714
     17 C11        30.9842    3.1431   54.3116 C.3       1 <0>        -0.0317
     18 C12        31.5783    2.8672   55.6298 C.1       1 <0>         0.2060
     19 N6         32.0452    2.6506   56.6697 N.1       1 <0>        -0.3654
     20 C13        29.7652    0.9638   54.5919 C.3       1 <0>        -0.0885
     21 C14        28.5524    1.6416   55.2218 C.3       1 <0>        -0.0805
     22 C15        27.7255    0.4844   55.7738 C.3       1 <0>        -0.0795
     23 C16        28.1166   -0.7465   54.9543 C.3       1 <0>        -0.0795
     24 C17        29.1462   -0.2667   53.9366 C.3       1 <0>        -0.0805
     25 H2         35.8319    0.4597   50.8946 H         1 <0>         0.1631
     26 H3         37.5898   -0.4971   49.0552 H         1 <0>         0.1716
     27 H4         36.3884   -2.2454   47.7215 H         1 <0>         0.4681
     28 H5         31.8087   -3.3466   48.6304 H         1 <0>         0.0535
     29 H6         34.6448    0.2413   52.8318 H         1 <0>         0.0544
     30 H7         30.6098    0.1837   51.3018 H         1 <0>         0.1844
     31 H8         31.7414    3.6348   53.6880 H         1 <0>         0.0987
     32 H9         30.1616    3.8593   54.4234 H         1 <0>         0.0987
     33 H10        30.4563    0.6455   55.3835 H         1 <0>         0.0655
     34 H11        28.8325    2.3547   56.0034 H         1 <0>         0.0502
     35 H12        27.9704    2.1830   54.4656 H         1 <0>         0.0502
     36 H13        27.9604    0.3173   56.8313 H         1 <0>         0.0444
     37 H14        26.6533    0.6949   55.7064 H         1 <0>         0.0444
     38 H15        28.5565   -1.5047   55.6126 H         1 <0>         0.0444
     39 H16        27.2507   -1.2010   54.4626 H         1 <0>         0.0444
     40 H17        29.8890   -1.0379   53.7105 H         1 <0>         0.0502
     41 H18        28.6428    0.0002   52.9992 H         1 <0>         0.0502
@<TRIPOS>BOND
     1    1    5 1
     2    1    2 2
     3    2    3 1
     4    3    4 1
     5    4    5 ar
     6    5    9 ar
     7    4    6 ar
     8    6    7 ar
     9    7    8 ar
    10    8    9 ar
    11    9   10 1
    12   10   14 2
    13   10   11 1
    14   11   12 2
    15   12   13 1
    16   13   14 1
    17   13   15 1
    18   15   16 1
    19   15   17 1
    20   17   18 1
    21   18   19 3
    22   15   20 1
    23   20   24 1
    24   20   21 1
    25   21   22 1
    26   22   23 1
    27   23   24 1
    28    1   25 1
    29    2   26 1
    30    3   27 1
    31    7   28 1
    32   11   29 1
    33   14   30 1
    34   17   31 1
    35   17   32 1
    36   20   33 1
    37   21   34 1
    38   21   35 1
    39   22   36 1
    40   22   37 1
    41   23   38 1
    42   23   39 1
    43   24   40 1
    44   24   41 1
@<TRIPOS>MOLECULE
Tofacitinib
   43    45     0     0     0
SMALL
USER_CHARGES

@<TRIPOS>ATOM
      1 C1         34.7015    2.5793   51.2840 C.3       1 <0>        -0.0919
      2 C2         33.5993    2.2886   52.3040 C.3       1 <0>        -0.0792
      3 H1         32.7127    2.8790   51.9902 H         1 <0>         0.0730
      4 C3         33.9902    2.7930   53.6990 C.3       1 <0>        -0.0953
      5 C4         32.8088    2.6790   54.6641 C.3       1 <0>         0.0918
      6 N1         32.0016    1.4763   54.4523 N.am      1 <0>        -0.4747
      7 C5         30.7196    1.4256   54.9990 C.2       1 <0>         0.6658
      8 O1         30.2172    2.3405   55.6570 O.2       1 <0>        -0.5829
      9 C6         29.9261    0.1681   54.7507 C.3       1 <0>        -0.0873
     10 C7         29.7518   -0.0215   53.3166 C.1       1 <0>         0.2190
     11 N2         29.6039   -0.1870   52.1776 N.1       1 <0>        -0.3443
     12 C8         32.6695    0.3760   53.7536 C.3       1 <0>         0.0886
     13 C9         33.1446    0.8076   52.3573 C.3       1 <0>         0.2500
     14 H2         32.2940    0.6719   51.6539 H         1 <0>         0.0656
     15 N3         34.1904   -0.1018   51.9326 N.pl3     1 <0>        -0.8092
     16 C10        35.3928   -0.2076   52.7549 C.3       1 <0>         0.2114
     17 C11        34.0536   -0.8718   50.7735 C.ar      1 <0>         0.7494
     18 N4         32.8233   -1.2646   50.3700 N.ar      1 <0>        -0.7855
     19 C12        32.7458   -2.0071   49.2427 C.ar      1 <0>         0.6720
     20 N5         33.7439   -2.4257   48.4381 N.ar      1 <0>        -0.7297
     21 C13        34.9378   -2.0046   48.8906 C.ar      1 <0>         0.5907
     22 C14        35.1719   -1.2398   50.0268 C.ar      1 <0>        -0.3614
     23 N6         36.1457   -2.2625   48.2987 N.pl3     1 <0>        -0.6743
     24 C15        37.1478   -1.6788   49.0307 C.2       1 <0>        -0.0140
     25 C16        36.5736   -1.0385   50.1083 C.2       1 <0>        -0.1552
     26 H3         35.6117    2.0259   51.5335 H         1 <0>         0.0392
     27 H4         34.3833    2.2843   50.2796 H         1 <0>         0.0392
     28 H5         34.9404    3.6469   51.2702 H         1 <0>         0.0392
     29 H6         34.8346    2.2200   54.0916 H         1 <0>         0.0516
     30 H7         34.3068    3.8375   53.6430 H         1 <0>         0.0516
     31 H8         33.1790    2.7230   55.7020 H         1 <0>         0.0483
     32 H9         32.1350    3.5452   54.5416 H         1 <0>         0.0483
     33 H10        30.4769   -0.6575   55.1971 H         1 <0>         0.0938
     34 H11        28.9693    0.2820   55.2562 H         1 <0>         0.0938
     35 H12        33.5084   -0.0304   54.3226 H         1 <0>         0.0606
     36 H13        31.9349   -0.4330   53.6596 H         1 <0>         0.0606
     37 H14        36.0687   -0.9247   52.3002 H         1 <0>         0.0443
     38 H15        35.1140   -0.5411   53.7497 H         1 <0>         0.0443
     39 H16        35.8698    0.7657   52.8126 H         1 <0>         0.0443
     40 H17        31.7461   -2.3057   48.9461 H         1 <0>         0.0498
     41 H18        36.2775   -2.7991   47.4526 H         1 <0>         0.4674
     42 H19        38.1792   -1.7709   48.7208 H         1 <0>         0.1714
     43 H20        37.1131   -0.4877   50.8665 H         1 <0>         0.1598
@<TRIPOS>BOND
     1    1    2 1
     2    2    3 1
     3    2   13 1
     4    2    4 1
     5    4    5 1
     6    5    6 1
     7    6    7 am
     8    7    8 2
     9    7    9 1
    10    9   10 1
    11   10   11 3
    12    6   12 1
    13   12   13 1
    14   13   14 1
    15   13   15 1
    16   15   16 1
    17   15   17 1
    18   17   22 ar
    19   17   18 ar
    20   18   19 ar
    21   19   20 ar
    22   20   21 ar
    23   21   22 ar
    24   22   25 1
    25   21   23 1
    26   23   24 1
    27   24   25 2
    28    1   26 1
    29    1   27 1
    30    1   28 1
    31    4   29 1
    32    4   30 1
    33    5   31 1
    34    5   32 1
    35    9   33 1
    36    9   34 1
    37   12   35 1
    38   12   36 1
    39   16   37 1
    40   16   38 1
    41   16   39 1
    42   19   40 1
    43   23   41 1
    44   24   42 1
    45   25   43 1
@<TRIPOS>MOLECULE
Cabozantinib
   61    65     0     0     0
SMALL
USER_CHARGES

@<TRIPOS>ATOM
      1 C1         36.2291   -1.1815   48.1460 C.3       1 <0>         0.1210
      2 O1         35.0374   -1.8886   48.4684 O.3       1 <0>        -0.3459
      3 C2         34.2893   -1.3942   49.4940 C.ar      1 <0>         0.1002
      4 C3         34.7178   -0.2450   50.1631 C.ar      1 <0>        -0.1885
      5 C4         33.1102   -2.0219   49.8760 C.ar      1 <0>         0.0750
      6 O2         32.6785   -3.1422   49.2345 O.3       1 <0>        -0.3393
      7 C5         31.4577   -3.7222   49.6914 C.3       1 <0>         0.1173
      8 C6         32.3624   -1.4984   50.9269 C.ar      1 <0>        -0.0984
      9 C7         32.7936   -0.3425   51.5997 C.ar      1 <0>        -0.1574
     10 C8         33.9897    0.3002   51.2170 C.ar      1 <0>         0.4159
     11 C9         32.0605    0.2057   52.6607 C.ar      1 <0>         0.1706
     12 C10        32.5130    1.3482   53.3048 C.ar      1 <0>        -0.3309
     13 C11        33.6942    1.9063   52.8597 C.ar      1 <0>         0.4415
     14 N1         34.4313    1.4090   51.8403 N.ar      1 <0>        -0.6766
     15 O3         30.8938   -0.3575   53.0894 O.3       1 <0>        -0.2420
     16 C12        29.7495    0.4173   53.0309 C.ar      1 <0>         0.0429
     17 C13        28.8703    0.4452   54.1134 C.ar      1 <0>        -0.1009
     18 C14        27.7161    1.2262   54.0546 C.ar      1 <0>        -0.1613
     19 C15        27.4411    1.9794   52.9132 C.ar      1 <0>         0.0733
     20 C16        28.3203    1.9515   51.8306 C.ar      1 <0>        -0.1613
     21 C17        29.4745    1.1704   51.8895 C.ar      1 <0>        -0.1009
     22 N2         26.2847    2.7577   52.8529 N.am      1 <0>        -0.4594
     23 C18        25.8441    3.5726   51.8016 C.2       1 <0>         0.7113
     24 O4         26.3939    3.7576   50.7206 O.2       1 <0>        -0.5686
     25 C19        24.5383    4.2518   52.1300 C.3       1 <0>        -0.2958
     26 C20        23.3507    3.8151   51.3161 C.3       1 <0>        -0.0970
     27 C21        23.9784    5.1482   51.0593 C.3       1 <0>        -0.0970
     28 C22        24.3273    4.6218   53.5320 C.2       1 <0>         0.7102
     29 O5         24.3194    3.7794   54.4544 O.2       1 <0>        -0.5801
     30 N3         24.1363    6.0029   53.7065 N.am      1 <0>        -0.4605
     31 C23        23.9061    6.7285   54.8994 C.ar      1 <0>         0.0530
     32 C24        23.1530    7.9021   54.8676 C.ar      1 <0>        -0.1433
     33 C25        22.9266    8.6177   56.0434 C.ar      1 <0>        -0.1378
     34 C26        23.4535    8.1597   57.2509 C.ar      1 <0>         0.1006
     35 F1         23.2385    8.8482   58.3795 F         1 <0>        -0.1396
     36 C27        24.2068    6.9860   57.2827 C.ar      1 <0>        -0.1378
     37 C28        24.4331    6.2705   56.1070 C.ar      1 <0>        -0.1433
     38 H1         36.7334   -1.6768   47.3126 H         1 <0>         0.0438
     39 H2         36.8857   -1.1550   49.0193 H         1 <0>         0.0438
     40 H3         35.9694   -0.1604   47.8567 H         1 <0>         0.0438
     41 H4         35.6449    0.2329   49.8498 H         1 <0>         0.1650
     42 H5         31.2381   -4.6041   49.0913 H         1 <0>         0.0436
     43 H6         30.6595   -2.9868   49.5987 H         1 <0>         0.0436
     44 H7         31.5807   -4.0060   50.7357 H         1 <0>         0.0436
     45 H8         31.4412   -2.0005   51.2150 H         1 <0>         0.1643
     46 H9         31.9639    1.7910   54.1282 H         1 <0>         0.1586
     47 H10        34.0971    2.7996   53.3255 H         1 <0>         0.0242
     48 H11        29.0796   -0.1387   55.0055 H         1 <0>         0.1546
     49 H12        27.0373    1.2400   54.9036 H         1 <0>         0.1579
     50 H13        28.1156    2.5339   50.9360 H         1 <0>         0.1579
     51 H14        30.1557    1.1534   51.0430 H         1 <0>         0.1546
     52 H15        25.6759    2.7341   53.6791 H         1 <0>         0.3319
     53 H16        23.4727    3.0477   50.5604 H         1 <0>         0.0906
     54 H17        22.3827    3.8003   51.8035 H         1 <0>         0.0906
     55 H18        24.5226    5.2775   50.1308 H         1 <0>         0.0906
     56 H19        23.4325    6.0302   51.3739 H         1 <0>         0.0906
     57 H20        24.1679    6.5598   52.8551 H         1 <0>         0.3220
     58 H21        22.7373    8.2684   53.9323 H         1 <0>         0.1556
     59 H22        22.3406    9.5317   56.0195 H         1 <0>         0.1521
     60 H23        24.6167    6.6303   58.2234 H         1 <0>         0.1521
     61 H24        25.0215    5.3571   56.1437 H         1 <0>         0.1556
@<TRIPOS>BOND
     1    1    2 1
     2    2    3 1
     3    3    4 ar
     4    4   10 ar
     5    3    5 ar
     6    5    6 1
     7    6    7 1
     8    5    8 ar
     9    8    9 ar
    10    9   10 ar
    11   10   14 ar
    12    9   11 ar
    13   11   12 ar
    14   12   13 ar
    15   13   14 ar
    16   11   15 1
    17   15   16 1
    18   16   21 ar
    19   16   17 ar
    20   17   18 ar
    21   18   19 ar
    22   19   20 ar
    23   20   21 ar
    24   19   22 1
    25   22   23 am
    26   23   24 2
    27   23   25 1
    28   25   27 1
    29   25   26 1
    30   26   27 1
    31   25   28 1
    32   28   29 2
    33   28   30 am
    34   30   31 1
    35   31   37 ar
    36   31   32 ar
    37   32   33 ar
    38   33   34 ar
    39   34   35 1
    40   34   36 ar
    41   36   37 ar
    42    1   38 1
    43    1   39 1
    44    1   40 1
    45    4   41 1
    46    7   42 1
    47    7   43 1
    48    7   44 1
    49    8   45 1
    50   12   46 1
    51   13   47 1
    52   17   48 1
    53   18   49 1
    54   20   50 1
    55   21   51 1
    56   22   52 1
    57   26   53 1
    58   26   54 1
    59   27   55 1
    60   27   56 1
    61   30   57 1
    62   32   58 1
    63   33   59 1
    64   36   60 1
    65   37   61 1
@<TRIPOS>MOLECULE
Ibrutinib
   57    61     0     0     0
SMALL
USER_CHARGES

@<TRIPOS>ATOM
      1 C1         37.3667   -0.5576   50.1261 C.2       1 <0>        -0.1586
      2 C2         36.1323   -0.2856   49.6975 C.2       1 <0>        -0.2213
      3 C3         35.1691    0.3225   50.6369 C.2       1 <0>         0.6627
      4 O1         35.4608    1.4163   51.1234 O.2       1 <0>        -0.5894
      5 N1         34.0009   -0.3820   50.9142 N.am      1 <0>        -0.4766
      6 C4         33.7902   -1.6923   50.2950 C.3       1 <0>         0.0880
      7 C5         32.4737   -1.7187   49.5223 C.3       1 <0>        -0.1000
      8 C6         31.2978   -1.2767   50.3945 C.3       1 <0>        -0.1028
      9 C7         31.5798    0.0792   51.0682 C.3       1 <0>         0.2404
     10 H1         31.6111    0.8770   50.2972 H         1 <0>         0.0803
     11 C8         32.9213    0.0397   51.8199 C.3       1 <0>         0.0882
     12 N2         30.4345    0.5066   51.9673 N.pl3     1 <0>        -0.4010
     13 C9         29.9512   -0.1642   53.0511 C.ar      1 <0>         0.6083
     14 C10        28.9137    0.6064   53.5458 C.ar      1 <0>        -0.5024
     15 N3         30.3923   -1.3344   53.5391 N.ar      1 <0>        -0.7458
     16 C11        29.6747   -1.6979   54.6240 C.ar      1 <0>         0.6960
     17 N4         28.6426   -1.0498   55.2147 N.ar      1 <0>        -0.8008
     18 C12        28.2496    0.1264   54.6697 C.ar      1 <0>         0.7698
     19 N5         27.1828    0.8383   55.2474 N.pl3     1 <0>        -0.9659
     20 N6         29.7884    1.6604   51.7164 N.2       1 <0>        -0.4087
     21 C13        28.8636    1.7157   52.6811 C.2       1 <0>         0.4200
     22 C14        27.9595    2.8362   52.7427 C.ar      1 <0>        -0.1299
     23 C15        26.7430    2.7891   52.0618 C.ar      1 <0>        -0.0897
     24 C16        25.8678    3.8736   52.1217 C.ar      1 <0>        -0.1582
     25 C17        26.2090    5.0052   52.8625 C.ar      1 <0>         0.1075
     26 C18        27.4255    5.0522   53.5434 C.ar      1 <0>        -0.1582
     27 C19        28.3008    3.9678   53.4834 C.ar      1 <0>        -0.0897
     28 O2         25.3550    6.0633   52.9208 O.3       1 <0>        -0.2520
     29 C20        24.4157    6.0771   53.9383 C.ar      1 <0>         0.0914
     30 C21        23.1640    5.4945   53.7397 C.ar      1 <0>        -0.1478
     31 C22        22.2179    5.5081   54.7646 C.ar      1 <0>        -0.1123
     32 C23        22.5235    6.1044   55.9880 C.ar      1 <0>        -0.1430
     33 C24        23.7753    6.6870   56.1865 C.ar      1 <0>        -0.1123
     34 C25        24.7214    6.6734   55.1616 C.ar      1 <0>        -0.1478
     35 H2         38.1180   -1.0040   49.4833 H         1 <0>         0.1244
     36 H3         37.6496   -0.3323   51.1489 H         1 <0>         0.1244
     37 H4         35.8129   -0.4954   48.6851 H         1 <0>         0.1434
     38 H5         34.6161   -1.9469   49.6232 H         1 <0>         0.0528
     39 H6         33.7794   -2.4384   51.0983 H         1 <0>         0.0528
     40 H7         32.5499   -1.0578   48.6500 H         1 <0>         0.0546
     41 H8         32.2889   -2.7299   49.1427 H         1 <0>         0.0546
     42 H9         30.3878   -1.2141   49.7854 H         1 <0>         0.0643
     43 H10        31.1084   -2.0410   51.1600 H         1 <0>         0.0643
     44 H11        33.1249    1.0008   52.2948 H         1 <0>         0.0821
     45 H12        32.8826   -0.6963   52.6342 H         1 <0>         0.0821
     46 H13        29.9652   -2.6352   55.0866 H         1 <0>         0.0512
     47 H14        26.9256    1.7301   54.8706 H         1 <0>         0.4491
     48 H15        26.7560    0.4903   56.0843 H         1 <0>         0.4491
     49 H16        26.4626    1.9146   51.4795 H         1 <0>         0.1482
     50 H17        24.9213    3.8309   51.5899 H         1 <0>         0.1540
     51 H18        27.6973    5.9312   54.1217 H         1 <0>         0.1540
     52 H19        29.2450    4.0195   54.0205 H         1 <0>         0.1482
     53 H20        22.9204    5.0278   52.7892 H         1 <0>         0.1500
     54 H21        21.2436    5.0537   54.6105 H         1 <0>         0.1369
     55 H22        21.7878    6.1136   56.7866 H         1 <0>         0.1346
     56 H23        24.0133    7.1506   57.1397 H         1 <0>         0.1369
     57 H24        25.6946    7.1289   55.3222 H         1 <0>         0.1500
@<TRIPOS>BOND
     1    1    2 2
     2    2    3 1
     3    3    4 2
     4    3    5 am
     5    5   11 1
     6    5    6 1
     7    6    7 1
     8    7    8 1
     9    8    9 1
    10    9   10 1
    11    9   11 1
    12    9   12 1
    13   12   13 1
    14   13   14 ar
    15   14   21 1
    16   14   18 ar
    17   13   15 ar
    18   15   16 ar
    19   16   17 ar
    20   17   18 ar
    21   18   19 1
    22   12   20 1
    23   20   21 2
    24   21   22 1
    25   22   27 ar
    26   22   23 ar
    27   23   24 ar
    28   24   25 ar
    29   25   26 ar
    30   26   27 ar
    31   25   28 1
    32   28   29 1
    33   29   34 ar
    34   29   30 ar
    35   30   31 ar
    36   31   32 ar
    37   32   33 ar
    38   33   34 ar
    39    1   35 1
    40    1   36 1
    41    2   37 1
    42    6   38 1
    43    6   39 1
    44    7   40 1
    45    7   41 1
    46    8   42 1
    47    8   43 1
    48   11   44 1
    49   11   45 1
    50   16   46 1
    51   19   47 1
    52   19   48 1
    53   23   49 1
    54   24   50 1
    55   26   51 1
    56   27   52 1
    57   30   53 1
    58   31   54 1
    59   32   55 1
    60   33   56 1
    61   34   57 1
@<TRIPOS>MOLECULE
Nintedanib
   73    77     0     0     0
SMALL
USER_CHARGES

@<TRIPOS>ATOM
      1 C1         20.6637    7.6667   57.7577 C.3       1 <0>         0.1496
      2 N1         21.4718    6.7564   56.9485 N.3       1 <0>        -0.7221
      3 C2         22.8687    7.2050   56.8971 C.3       1 <0>         0.1624
      4 C3         23.7164    6.2530   56.0463 C.3       1 <0>         0.1747
      5 N2         23.1666    6.1345   54.6904 N.3       1 <0>        -0.7298
      6 C4         21.7701    5.6850   54.7416 C.3       1 <0>         0.1747
      7 C5         20.9216    6.6359   55.5929 C.3       1 <0>         0.1624
      8 C6         23.9750    5.2259   53.8799 C.3       1 <0>         0.1179
      9 C7         23.7064    5.4941   52.4150 C.2       1 <0>         0.6587
     10 O1         22.9070    6.3704   52.0755 O.2       1 <0>        -0.5613
     11 N3         24.4679    4.7062   51.5228 N.am      1 <0>        -0.3950
     12 C8         24.3667    4.8718   50.0644 C.3       1 <0>         0.0772
     13 C9         25.3893    3.6930   51.9967 C.ar      1 <0>         0.0681
     14 C10        26.7453    3.7810   51.6818 C.ar      1 <0>        -0.1433
     15 C11        27.6320    2.8057   52.1381 C.ar      1 <0>        -0.1119
     16 C12        27.1627    1.7424   52.9094 C.ar      1 <0>         0.0906
     17 C13        25.8066    1.6544   53.2242 C.ar      1 <0>        -0.1119
     18 C14        24.9200    2.6297   52.7678 C.ar      1 <0>        -0.1433
     19 N4         28.0591    0.7562   53.3707 N.pl3     1 <0>        -0.6223
     20 C15        29.3925    0.6691   53.1722 C.2       1 <0>         0.3091
     21 C16        30.2749    1.3281   54.1684 C.ar      1 <0>        -0.0872
     22 C17        30.6595    2.6568   53.9885 C.ar      1 <0>        -0.0995
     23 C18        31.4883    3.2758   54.9243 C.ar      1 <0>        -0.1340
     24 C19        31.9326    2.5661   56.0399 C.ar      1 <0>        -0.1162
     25 C20        31.5480    1.2373   56.2197 C.ar      1 <0>        -0.1340
     26 C21        30.7192    0.6184   55.2839 C.ar      1 <0>        -0.0995
     27 C22        29.9763    0.0150   52.1429 C.2       1 <0>        -0.2701
     28 C23        29.1926   -0.6970   51.0920 C.2       1 <0>         0.7171
     29 O2         27.9818   -0.7881   51.0083 O.2       1 <0>        -0.6487
     30 N5         30.1758   -1.2212   50.2468 N.am      1 <0>        -0.4707
     31 C24        31.3902   -0.1253   51.8632 C.ar      1 <0>        -0.0264
     32 C25        31.4594   -0.8891   50.6944 C.ar      1 <0>         0.0305
     33 C26        32.5418    0.3172   52.4861 C.ar      1 <0>        -0.1153
     34 C27        33.7699   -0.0240   51.9094 C.ar      1 <0>        -0.0975
     35 C28        33.8286   -0.7937   50.7321 C.ar      1 <0>        -0.1119
     36 C29        32.6607   -1.2371   50.1086 C.ar      1 <0>        -0.1132
     37 C30        35.1227   -1.1297   50.1588 C.2       1 <0>         0.6466
     38 O3         35.3549   -2.1583   49.5102 O.2       1 <0>        -0.5413
     39 O4         36.0558   -0.1652   50.4241 O.3       1 <0>        -0.4408
     40 C31        37.3740   -0.3817   49.9093 C.3       1 <0>         0.1273
     41 H1         21.0832    7.7479   58.7638 H         1 <0>         0.0332
     42 H2         19.6378    7.2959   57.8330 H         1 <0>         0.0332
     43 H3         20.6446    8.6608   57.3031 H         1 <0>         0.0332
     44 H4         22.9385    8.2237   56.4919 H         1 <0>         0.0420
     45 H5         23.2880    7.2277   57.9103 H         1 <0>         0.0420
     46 H6         24.7376    6.6504   55.9987 H         1 <0>         0.0400
     47 H7         23.7709    5.2705   56.5347 H         1 <0>         0.0400
     48 H8         21.3507    5.6624   53.7284 H         1 <0>         0.0400
     49 H9         21.7009    4.6660   55.1464 H         1 <0>         0.0400
     50 H10        20.8656    7.6181   55.1040 H         1 <0>         0.0420
     51 H11        19.9009    6.2374   55.6412 H         1 <0>         0.0420
     52 H12        23.6684    4.2238   54.1629 H         1 <0>         0.0554
     53 H13        25.0097    5.4276   54.1386 H         1 <0>         0.0554
     54 H14        25.0961    5.6075   49.7526 H         1 <0>         0.0443
     55 H15        23.3659    5.2064   49.8248 H         1 <0>         0.0443
     56 H16        24.5675    3.9177   49.5952 H         1 <0>         0.0443
     57 H17        27.1220    4.6053   51.0813 H         1 <0>         0.1519
     58 H18        28.6867    2.8837   51.8869 H         1 <0>         0.1438
     59 H19        25.4302    0.8302   53.8246 H         1 <0>         0.1438
     60 H20        23.8654    2.5508   53.0196 H         1 <0>         0.1519
     61 H21        27.6493    0.0133   53.9244 H         1 <0>         0.4658
     62 H22        30.3215    3.2233   53.1240 H         1 <0>         0.1430
     63 H23        31.7880    4.3103   54.7843 H         1 <0>         0.1382
     64 H24        32.5780    3.0479   56.7685 H         1 <0>         0.1373
     65 H25        31.8938    0.6848   57.0884 H         1 <0>         0.1382
     66 H26        30.4281   -0.4179   55.4379 H         1 <0>         0.1430
     67 H27        29.9836   -1.7705   49.4174 H         1 <0>         0.3426
     68 H28        32.5079    0.9107   53.3929 H         1 <0>         0.1504
     69 H29        34.6874    0.3149   52.3857 H         1 <0>         0.1522
     70 H30        32.6924   -1.8310   49.2014 H         1 <0>         0.1571
     71 H31        38.0030    0.4582   50.1951 H         1 <0>         0.0501
     72 H32        37.3161   -0.4714   48.8268 H         1 <0>         0.0501
     73 H33        37.7603   -1.3021   50.3410 H         1 <0>         0.0501
@<TRIPOS>BOND
     1    1    2 1
     2    2    7 1
     3    2    3 1
     4    3    4 1
     5    4    5 1
     6    5    6 1
     7    6    7 1
     8    5    8 1
     9    8    9 1
    10    9   10 2
    11    9   11 am
    12   11   12 1
    13   11   13 1
    14   13   18 ar
    15   13   14 ar
    16   14   15 ar
    17   15   16 ar
    18   16   17 ar
    19   17   18 ar
    20   16   19 1
    21   19   20 1
    22   20   21 1
    23   21   26 ar
    24   21   22 ar
    25   22   23 ar
    26   23   24 ar
    27   24   25 ar
    28   25   26 ar
    29   20   27 2
    30   27   28 1
    31   28   29 2
    32   28   30 am
    33   30   32 1
    34   27   31 1
    35   31   32 ar
    36   32   36 ar
    37   31   33 ar
    38   33   34 ar
    39   34   35 ar
    40   35   36 ar
    41   35   37 1
    42   37   38 2
    43   37   39 1
    44   39   40 1
    45    1   41 1
    46    1   42 1
    47    1   43 1
    48    3   44 1
    49    3   45 1
    50    4   46 1
    51    4   47 1
    52    6   48 1
    53    6   49 1
    54    7   50 1
    55    7   51 1
    56    8   52 1
    57    8   53 1
    58   12   54 1
    59   12   55 1
    60   12   56 1
    61   14   57 1
    62   15   58 1
    63   17   59 1
    64   18   60 1
    65   19   61 1
    66   22   62 1
    67   23   63 1
    68   24   64 1
    69   25   65 1
    70   26   66 1
    71   30   67 1
    72   33   68 1
    73   34   69 1
    74   36   70 1
    75   40   71 1
    76   40   72 1
    77   40   73 1
@<TRIPOS>MOLECULE
Trametinib
   60    64     0     0     0
SMALL
USER_CHARGES

@<TRIPOS>ATOM
      1 I1         20.5683   12.5367   53.3368 I         1 <0>        -0.1219
      2 C1         21.1339   10.5409   53.4497 C.ar      1 <0>         0.0391
      3 C2         20.5838    9.7147   54.4297 C.ar      1 <0>        -0.0909
      4 C3         20.9611    8.3739   54.5038 C.ar      1 <0>        -0.1346
      5 C4         21.8887    7.8593   53.5981 C.ar      1 <0>         0.1044
      6 C5         22.4389    8.6856   52.6181 C.ar      1 <0>         0.1152
      7 F1         23.3296    8.2011   51.7410 F         1 <0>        -0.1270
      8 C6         22.0616   10.0264   52.5440 C.ar      1 <0>        -0.1217
      9 N1         22.2684    6.5067   53.6753 N.pl3     1 <0>        -0.6244
     10 C7         23.5243    5.9723   53.8831 C.2       1 <0>         0.3688
     11 N2         24.2348    6.3038   55.0502 N.am      1 <0>        -0.3471
     12 C8         23.5823    7.1388   56.0641 C.3       1 <0>         0.0562
     13 C9         25.5532    5.9177   55.2795 C.2       1 <0>         0.7039
     14 O1         26.2011    6.2405   56.2774 O.2       1 <0>        -0.6196
     15 C10        26.1969    5.0448   54.2417 C.2       1 <0>        -0.2506
     16 C11        27.6756    4.8444   54.4690 C.3       1 <0>        -0.0437
     17 C12        25.4520    4.5762   53.2118 C.2       1 <0>         0.2015
     18 C13        24.1274    5.1474   52.9823 C.2       1 <0>        -0.3569
     19 N3         25.9068    3.5986   52.3011 N.am      1 <0>        -0.3007
     20 C14        25.3858    3.4976   50.9838 C.2       1 <0>         0.8209
     21 O2         25.7880    2.6841   50.1428 O.2       1 <0>        -0.6068
     22 N4         24.2840    4.3252   50.6999 N.am      1 <0>        -0.4647
     23 C15        23.4459    4.8583   51.6777 C.2       1 <0>         0.7440
     24 O3         22.2472    5.0612   51.4930 O.2       1 <0>        -0.6448
     25 C16        23.7812    4.3185   49.3271 C.3       1 <0>         0.0414
     26 C17        24.4890    5.0911   48.2781 C.3       1 <0>        -0.1157
     27 C18        23.1434    5.5351   48.7689 C.3       1 <0>        -0.1157
     28 C19        26.8148    2.5408   52.7046 C.ar      1 <0>         0.0705
     29 C20        26.4404    1.6455   53.7067 C.ar      1 <0>        -0.1519
     30 C21        27.3132    0.6294   54.0958 C.ar      1 <0>        -0.0995
     31 C22        28.5604    0.5086   53.4830 C.ar      1 <0>        -0.1479
     32 C23        28.9348    1.4040   52.4810 C.ar      1 <0>         0.0800
     33 C24        28.0620    2.4201   52.0919 C.ar      1 <0>        -0.1620
     34 N5         30.1824    1.2821   51.8683 N.am      1 <0>        -0.4750
     35 C25        31.1826    0.3345   52.1233 C.2       1 <0>         0.6678
     36 O4         31.1522   -0.5807   52.9397 O.2       1 <0>        -0.5879
     37 C26        32.3891    0.5444   51.2432 C.3       1 <0>        -0.1760
     38 H1         19.8582   10.0950   55.1442 H         1 <0>         0.1542
     39 H2         20.5260    7.7380   55.2706 H         1 <0>         0.1533
     40 H3         22.5032   10.6522   51.7726 H         1 <0>         0.1649
     41 H4         21.5215    5.8293   53.5632 H         1 <0>         0.4618
     42 H5         23.0654    6.4931   56.7636 H         1 <0>         0.0697
     43 H6         22.8778    7.7982   55.5714 H         1 <0>         0.0697
     44 H7         24.3398    7.7183   56.5780 H         1 <0>         0.0697
     45 H8         27.8225    3.9701   55.0940 H         1 <0>         0.0556
     46 H9         28.0815    5.7235   54.9586 H         1 <0>         0.0556
     47 H10        28.1653    4.7030   53.5112 H         1 <0>         0.0556
     48 H11        23.3776    3.3569   49.0899 H         1 <0>         0.0960
     49 H12        25.3461    5.6987   48.5413 H         1 <0>         0.0824
     50 H13        24.5441    4.6386   47.2956 H         1 <0>         0.0824
     51 H14        23.0977    6.4406   49.3615 H         1 <0>         0.0824
     52 H15        22.2922    5.3816   48.1170 H         1 <0>         0.0824
     53 H16        25.4707    1.7289   54.1907 H         1 <0>         0.1449
     54 H17        27.0215   -0.0680   54.8757 H         1 <0>         0.1419
     55 H18        29.2323   -0.2870   53.7950 H         1 <0>         0.1795
     56 H19        28.3535    3.1181   51.3094 H         1 <0>         0.1456
     57 H20        30.4004    1.9696   51.1378 H         1 <0>         0.3163
     58 H21        33.0945    1.2188   51.7367 H         1 <0>         0.0698
     59 H22        32.0808    0.9880   50.2922 H         1 <0>         0.0698
     60 H23        32.8771   -0.4143   51.0439 H         1 <0>         0.0698
@<TRIPOS>BOND
     1    1    2 1
     2    2    8 ar
     3    2    3 ar
     4    3    4 ar
     5    4    5 ar
     6    5    6 ar
     7    6    7 1
     8    6    8 ar
     9    5    9 1
    10    9   10 1
    11   10   18 2
    12   10   11 1
    13   11   12 1
    14   11   13 am
    15   13   14 2
    16   13   15 1
    17   15   16 1
    18   15   17 2
    19   17   18 1
    20   18   23 1
    21   17   19 1
    22   19   20 am
    23   20   21 2
    24   20   22 am
    25   22   23 am
    26   23   24 2
    27   22   25 1
    28   25   27 1
    29   25   26 1
    30   26   27 1
    31   19   28 1
    32   28   33 ar
    33   28   29 ar
    34   29   30 ar
    35   30   31 ar
    36   31   32 ar
    37   32   33 ar
    38   32   34 1
    39   34   35 am
    40   35   36 2
    41   35   37 1
    42    3   38 1
    43    4   39 1
    44    8   40 1
    45    9   41 1
    46   12   42 1
    47   12   43 1
    48   12   44 1
    49   16   45 1
    50   16   46 1
    51   16   47 1
    52   25   48 1
    53   26   49 1
    54   26   50 1
    55   27   51 1
    56   27   52 1
    57   29   53 1
    58   30   54 1
    59   31   55 1
    60   33   56 1
    61   34   57 1
    62   37   58 1
    63   37   59 1
    64   37   60 1
@<TRIPOS>MOLECULE
Idelalisib
   49    53     0     0     0
SMALL
USER_CHARGES

@<TRIPOS>ATOM
      1 F1         21.1314    8.1840   53.4776 F         1 <0>        -0.1096
      2 C1         22.1879    7.7472   54.1774 C.ar      1 <0>         0.2036
      3 C2         22.4515    8.3186   55.4215 C.ar      1 <0>        -0.1926
      4 C3         23.5423    7.8836   56.1702 C.ar      1 <0>        -0.0669
      5 C4         24.3697    6.8744   55.6758 C.ar      1 <0>        -0.1327
      6 C5         24.1159    6.2918   54.4285 C.ar      1 <0>         0.2104
      7 C6         23.0214    6.7352   53.6864 C.ar      1 <0>        -0.2284
      8 N1         24.9531    5.2666   53.9774 N.2       1 <0>        -0.6332
      9 C7         24.7154    4.7261   52.8218 C.2       1 <0>         0.4896
     10 C8         25.5989    3.5533   52.4482 C.3       1 <0>         0.2120
     11 H1         26.1260    3.8143   51.5309 H         1 <0>         0.0659
     12 C9         24.7657    2.2911   52.3012 C.3       1 <0>        -0.0996
     13 C10        24.0419    1.9361   53.5925 C.3       1 <0>        -0.0983
     14 N2         26.5482    3.4740   53.5191 N.pl3     1 <0>        -0.7620
     15 C11        27.5168    2.5560   53.5681 C.2       1 <0>         0.4503
     16 N3         28.0460    2.0465   54.7701 N.pl3     1 <0>        -0.7088
     17 C12        29.0435    1.1008   54.7948 C.2       1 <0>         0.5775
     18 N4         29.6214    0.5604   53.7636 N.2       1 <0>        -0.5889
     19 C13        28.0936    2.0170   52.4582 C.2       1 <0>        -0.2057
     20 C14        29.1573    1.0088   52.5565 C.2       1 <0>         0.5759
     21 N5         27.8747    2.2331   51.1265 N.2       1 <0>        -0.5851
     22 C15        28.7249    1.4313   50.5458 C.2       1 <0>         0.5288
     23 N6         29.5373    0.6560   51.3656 N.2       1 <0>        -0.6493
     24 N7         23.6862    5.1305   51.9681 N.am      1 <0>        -0.3234
     25 C16        22.7749    6.1346   52.3586 C.2       1 <0>         0.7143
     26 O1         21.8491    6.5771   51.6823 O.2       1 <0>        -0.5808
     27 C17        23.5304    4.5850   50.6477 C.ar      1 <0>         0.0234
     28 C18        22.3548    3.9175   50.3038 C.ar      1 <0>        -0.1200
     29 C19        22.2025    3.3889   49.0220 C.ar      1 <0>        -0.1240
     30 C20        23.2256    3.5277   48.0841 C.ar      1 <0>        -0.1188
     31 C21        24.4012    4.1952   48.4281 C.ar      1 <0>        -0.1240
     32 C22        24.5535    4.7238   49.7099 C.ar      1 <0>        -0.1200
     33 H2         21.8052    9.1015   55.8071 H         1 <0>         0.1583
     34 H3         23.7505    8.3306   57.1379 H         1 <0>         0.1479
     35 H4         25.2192    6.5463   56.2702 H         1 <0>         0.1663
     36 H5         24.0210    2.4264   51.5070 H         1 <0>         0.0600
     37 H6         25.3944    1.4438   51.9991 H         1 <0>         0.0600
     38 H7         23.4467    1.0255   53.4702 H         1 <0>         0.0466
     39 H8         24.7660    1.7621   54.3949 H         1 <0>         0.0466
     40 H9         23.3753    2.7438   53.9107 H         1 <0>         0.0466
     41 H10        26.5034    4.1408   54.2968 H         1 <0>         0.4968
     42 H11        27.6429    2.4223   55.6214 H         1 <0>         0.4517
     43 H12        29.3372    0.8153   55.8170 H         1 <0>         0.0606
     44 H13        28.8115    1.3565   49.4512 H         1 <0>         0.0611
     45 H14        21.5504    3.8043   51.0263 H         1 <0>         0.1467
     46 H15        21.2873    2.8693   48.7535 H         1 <0>         0.1417
     47 H16        23.1072    3.1157   47.0863 H         1 <0>         0.1408
     48 H17        25.1974    4.3033   47.6974 H         1 <0>         0.1417
     49 H18        25.4738    5.2428   49.9660 H         1 <0>         0.1467
@<TRIPOS>BOND
     1    1    2 1
     2    2    7 ar
     3    2    3 ar
     4    3    4 ar
     5    4    5 ar
     6    5    6 ar
     7    6    7 ar
     8    7   25 1
     9    6    8 1
    10    8    9 2
    11    9   10 1
    12   10   11 1
    13   10   12 1
    14   12   13 1
    15   10   14 1
    16   14   15 1
    17   15   16 1
    18   16   17 1
    19   17   18 2
    20   18   20 1
    21   15   19 2
    22   19   20 1
    23   20   23 2
    24   19   21 1
    25   21   22 2
    26   22   23 1
    27    9   24 1
    28   24   25 am
    29   25   26 2
    30   24   27 1
    31   27   32 ar
    32   27   28 ar
    33   28   29 ar
    34   29   30 ar
    35   30   31 ar
    36   31   32 ar
    37    3   33 1
    38    4   34 1
    39    5   35 1
    40   12   36 1
    41   12   37 1
    42   13   38 1
    43   13   39 1
    44   13   40 1
    45   14   41 1
    46   16   42 1
    47   17   43 1
    48   22   44 1
    49   28   45 1
    50   29   46 1
    51   30   47 1
    52   31   48 1
    53   32   49 1
@<TRIPOS>MOLECULE
Lenvatinib
   49    52     0     0     0
SMALL
USER_CHARGES

@<TRIPOS>ATOM
      1 O1         34.1613   -2.3826   48.7772 O.2       1 <0>        -0.6084
      2 C1         33.3374   -2.0774   49.6349 C.2       1 <0>         0.6831
      3 N1         32.1293   -2.7228   49.7841 N.am      1 <0>        -0.6618
      4 C2         33.6210   -0.9998   50.5722 C.ar      1 <0>        -0.1568
      5 C3         32.6827   -0.6806   51.5495 C.ar      1 <0>        -0.0440
      6 C4         34.8117   -0.2869   50.5060 C.ar      1 <0>         0.1336
      7 O2         35.7498   -0.5761   49.5604 O.3       1 <0>        -0.3524
      8 C5         36.9407    0.2080   49.5688 C.3       1 <0>         0.1108
      9 C6         35.0612    0.7430   51.4165 C.ar      1 <0>        -0.1955
     10 C7         34.1405    1.0834   52.4037 C.ar      1 <0>         0.4345
     11 C8         32.9339    0.3553   52.4651 C.ar      1 <0>        -0.1758
     12 N2         34.4127    2.0817   53.2653 N.ar      1 <0>        -0.6795
     13 C9         33.4913    2.3805   54.2096 C.ar      1 <0>         0.4502
     14 C10        32.2844    1.7256   54.3481 C.ar      1 <0>        -0.3309
     15 C11        32.0068    0.6974   53.4588 C.ar      1 <0>         0.1747
     16 O3         30.8172    0.0405   53.5834 O.3       1 <0>        -0.2392
     17 C12        29.6585    0.7848   53.4554 C.ar      1 <0>         0.0381
     18 C13        28.6123    0.6085   54.3611 C.ar      1 <0>        -0.0930
     19 C14        27.4443    1.3600   54.2324 C.ar      1 <0>        -0.0478
     20 Cl1        26.1720    1.1077   55.3736 Cl        1 <0>        -0.0964
     21 C15        27.3223    2.2878   53.1979 C.ar      1 <0>         0.1121
     22 C16        28.3685    2.4640   52.2922 C.ar      1 <0>        -0.1540
     23 C17        29.5365    1.7125   52.4210 C.ar      1 <0>        -0.0904
     24 N3         26.1652    3.0564   53.0403 N.am      1 <0>        -0.4812
     25 C18        25.8870    4.0263   52.0587 C.2       1 <0>         0.7851
     26 O4         26.6372    4.3700   51.1483 O.2       1 <0>        -0.6076
     27 N4         24.6130    4.5720   52.2464 N.am      1 <0>        -0.5380
     28 C19        23.7317    4.1668   53.3172 C.3       1 <0>         0.0517
     29 C20        22.6700    5.0898   53.8107 C.3       1 <0>        -0.1434
     30 C21        23.8583    4.7789   54.6708 C.3       1 <0>        -0.1434
     31 H1         31.4503   -2.4895   50.5005 H         1 <0>         0.3151
     32 H2         31.8866   -3.5020   49.1808 H         1 <0>         0.3151
     33 H3         31.7527   -1.2447   51.5937 H         1 <0>         0.1622
     34 H4         37.5944   -0.1307   48.7658 H         1 <0>         0.0503
     35 H5         37.4320    0.0973   50.5349 H         1 <0>         0.0503
     36 H6         36.6687    1.2507   49.4092 H         1 <0>         0.0503
     37 H7         36.0001    1.2909   51.3493 H         1 <0>         0.1672
     38 H8         33.7630    3.1925   54.8760 H         1 <0>         0.0268
     39 H9         31.5835    2.0089   55.1252 H         1 <0>         0.1608
     40 H10        28.7174   -0.1181   55.1635 H         1 <0>         0.1659
     41 H11        28.2863    3.1836   51.4814 H         1 <0>         0.1899
     42 H12        30.3490    1.8554   51.7138 H         1 <0>         0.1601
     43 H13        25.4162    2.9014   53.7215 H         1 <0>         0.3253
     44 H14        24.2926    5.2862   51.6002 H         1 <0>         0.3038
     45 H15        23.5057    3.1177   53.2500 H         1 <0>         0.1090
     46 H16        22.5979    6.0869   53.3937 H         1 <0>         0.0784
     47 H17        21.7197    4.6473   54.0831 H         1 <0>         0.0784
     48 H18        24.5836    5.5673   54.8309 H         1 <0>         0.0784
     49 H19        23.7085    4.1268   55.5225 H         1 <0>         0.0784
@<TRIPOS>BOND
     1    1    2 2
     2    2    3 am
     3    2    4 1
     4    4    5 ar
     5    5   11 ar
     6    4    6 ar
     7    6    7 1
     8    7    8 1
     9    6    9 ar
    10    9   10 ar
    11   10   11 ar
    12   11   15 ar
    13   10   12 ar
    14   12   13 ar
    15   13   14 ar
    16   14   15 ar
    17   15   16 1
    18   16   17 1
    19   17   23 ar
    20   17   18 ar
    21   18   19 ar
    22   19   20 1
    23   19   21 ar
    24   21   22 ar
    25   22   23 ar
    26   21   24 1
    27   24   25 am
    28   25   26 2
    29   25   27 am
    30   27   28 1
    31   28   30 1
    32   28   29 1
    33   29   30 1
    34    3   31 1
    35    3   32 1
    36    5   33 1
    37    8   34 1
    38    8   35 1
    39    8   36 1
    40    9   37 1
    41   13   38 1
    42   14   39 1
    43   18   40 1
    44   22   41 1
    45   23   42 1
    46   24   43 1
    47   27   44 1
    48   28   45 1
    49   29   46 1
    50   29   47 1
    51   30   48 1
    52   30   49 1
@<TRIPOS>MOLECULE
Palbociclib
   62    66     0     0     0
SMALL
USER_CHARGES

@<TRIPOS>ATOM
      1 C1         22.3501    6.1977   55.3470 C.3       1 <0>        -0.0857
      2 C2         22.6282    6.7400   56.7465 C.3       1 <0>        -0.0759
      3 C3         23.8380    7.6684   56.6077 C.3       1 <0>        -0.0759
      4 C4         24.2252    7.6385   55.1316 C.3       1 <0>        -0.0857
      5 C5         23.7021    6.2906   54.6500 C.3       1 <0>         0.0994
      6 N1         23.5950    6.2138   53.2041 N.am      1 <0>        -0.4132
      7 C6         22.7744    7.0978   52.5163 C.2       1 <0>         0.7237
      8 O1         22.1026    7.9737   53.0651 O.2       1 <0>        -0.6209
      9 C7         22.7138    6.9646   51.0204 C.2       1 <0>        -0.3001
     10 C8         21.8312    7.8905   50.2802 C.2       1 <0>         0.6022
     11 O2         22.3010    8.6439   49.4339 O.2       1 <0>        -0.5130
     12 C9         20.3640    7.8589   50.5997 C.3       1 <0>        -0.1923
     13 C10        23.4388    6.0306   50.3698 C.2       1 <0>         0.1025
     14 C11        23.4922    5.8524   48.8701 C.3       1 <0>        -0.0840
     15 C12        24.2710    5.0994   51.1652 C.ar      1 <0>        -0.4197
     16 C13        24.3477    5.2004   52.5489 C.ar      1 <0>         0.6302
     17 C14        25.0254    4.0655   50.6143 C.ar      1 <0>         0.5126
     18 N2         25.7944    3.2088   51.3194 N.ar      1 <0>        -0.7253
     19 C15        25.7920    3.4137   52.6416 C.ar      1 <0>         0.9492
     20 N3         25.1096    4.3637   53.3010 N.ar      1 <0>        -0.8283
     21 N4         26.5839    2.5442   53.4220 N.pl3     1 <0>        -0.8478
     22 C16        27.7773    1.8463   53.1566 C.ar      1 <0>         0.6043
     23 C17        28.3366    2.0030   51.8987 C.ar      1 <0>        -0.2250
     24 C18        29.5164    1.3213   51.6216 C.ar      1 <0>        -0.1369
     25 C19        30.0925    0.5153   52.5971 C.ar      1 <0>         0.0154
     26 C20        29.4547    0.4253   53.8239 C.ar      1 <0>         0.3999
     27 N5         28.3078    1.0723   54.1299 N.ar      1 <0>        -0.6386
     28 N6         31.2711   -0.1771   52.3500 N.pl3     1 <0>        -0.6375
     29 C21        32.4136   -0.1415   53.2648 C.3       1 <0>         0.1858
     30 C22        33.5043    0.7530   52.6752 C.3       1 <0>         0.1581
     31 N7         33.8818    0.2975   51.3330 N.3       1 <0>        -0.8179
     32 C23        32.7214    0.2572   50.4373 C.3       1 <0>         0.1581
     33 C24        31.6047   -0.6322   50.9967 C.3       1 <0>         0.1858
     34 H1         21.6075    6.8339   54.8490 H         1 <0>         0.0555
     35 H2         21.9595    5.1758   55.3733 H         1 <0>         0.0555
     36 H3         21.7565    7.2640   57.1512 H         1 <0>         0.0407
     37 H4         22.8673    5.9199   57.4334 H         1 <0>         0.0407
     38 H5         23.6107    8.6864   56.9398 H         1 <0>         0.0407
     39 H6         24.6629    7.2968   57.2266 H         1 <0>         0.0407
     40 H7         23.7278    8.4641   54.6070 H         1 <0>         0.0555
     41 H8         25.3047    7.7464   54.9884 H         1 <0>         0.0555
     42 H9         24.3629    5.4844   54.9829 H         1 <0>         0.0955
     43 H10        20.1127    8.5579   51.4019 H         1 <0>         0.0663
     44 H11        20.0875    6.8496   50.9152 H         1 <0>         0.0663
     45 H12        19.7981    8.1419   49.7081 H         1 <0>         0.0663
     46 H13        24.2968    6.4600   48.4722 H         1 <0>         0.0614
     47 H14        22.5444    6.1628   48.4446 H         1 <0>         0.0614
     48 H15        23.6682    4.8063   48.6461 H         1 <0>         0.0614
     49 H16        25.0468    3.8696   49.5468 H         1 <0>         0.0321
     50 H17        26.2193    2.3933   54.3575 H         1 <0>         0.4696
     51 H18        27.8805    2.6346   51.1435 H         1 <0>         0.1506
     52 H19        29.9782    1.4245   50.6433 H         1 <0>         0.1441
     53 H20        29.8563   -0.1880   54.6250 H         1 <0>         0.0346
     54 H21        32.1145    0.2565   54.2397 H         1 <0>         0.0452
     55 H22        32.8026   -1.1545   53.4176 H         1 <0>         0.0452
     56 H23        33.1687    1.7938   52.6429 H         1 <0>         0.0388
     57 H24        34.3853    0.7157   53.3203 H         1 <0>         0.0388
     58 H25        34.5816    0.9372   50.9472 H         1 <0>         0.3662
     59 H26        32.3450    1.2720   50.2571 H         1 <0>         0.0388
     60 H27        33.0390   -0.1401   49.4670 H         1 <0>         0.0388
     61 H28        30.7342   -0.5634   50.3417 H         1 <0>         0.0452
     62 H29        31.9355   -1.6735   51.0227 H         1 <0>         0.0452
@<TRIPOS>BOND
     1    1    5 1
     2    1    2 1
     3    2    3 1
     4    3    4 1
     5    4    5 1
     6    5    6 1
     7    6   16 1
     8    6    7 am
     9    7    8 2
    10    7    9 1
    11    9   10 1
    12   10   11 2
    13   10   12 1
    14    9   13 2
    15   13   14 1
    16   13   15 1
    17   15   16 ar
    18   16   20 ar
    19   15   17 ar
    20   17   18 ar
    21   18   19 ar
    22   19   20 ar
    23   19   21 1
    24   21   22 1
    25   22   27 ar
    26   22   23 ar
    27   23   24 ar
    28   24   25 ar
    29   25   26 ar
    30   26   27 ar
    31   25   28 1
    32   28   33 1
    33   28   29 1
    34   29   30 1
    35   30   31 1
    36   31   32 1
    37   32   33 1
    38    1   34 1
    39    1   35 1
    40    2   36 1
    41    2   37 1
    42    3   38 1
    43    3   39 1
    44    4   40 1
    45    4   41 1
    46    5   42 1
    47   12   43 1
    48   12   44 1
    49   12   45 1
    50   14   46 1
    51   14   47 1
    52   14   48 1
    53   17   49 1
    54   21   50 1
    55   23   51 1
    56   24   52 1
    57   26   53 1
    58   29   54 1
    59   29   55 1
    60   30   56 1
    61   30   57 1
    62   31   58 1
    63   32   59 1
    64   32   60 1
    65   33   61 1
    66   33   62 1
@<TRIPOS>MOLECULE
Cobimetinib
   51    54     0     0     0
SMALL
USER_CHARGES

@<TRIPOS>ATOM
      1 N1         30.8892    0.3616   53.8164 N.3       1 <0>        -0.8109
      2 C1         31.1469   -0.9686   53.2587 C.3       1 <0>         0.1601
      3 C2         32.1687   -0.9299   52.1252 C.3       1 <0>        -0.0887
      4 C3         31.7486    0.0462   51.0321 C.3       1 <0>        -0.0777
      5 C4         31.4324    1.4146   51.6301 C.3       1 <0>        -0.0806
      6 C5         30.4447    1.3318   52.8037 C.3       1 <0>         0.1766
      7 H1         30.4359    2.3526   53.3099 H         1 <0>         0.0285
      8 C6         29.0191    1.0558   52.3472 C.3       1 <0>         0.1194
      9 O1         29.0200   -0.0622   51.4317 O.3       1 <0>        -0.5749
     10 C7         28.2668    2.3030   51.8338 C.3       1 <0>         0.0647
     11 N2         27.2264    1.9845   52.7922 N.am      1 <0>        -0.4628
     12 C8         27.9850    0.9628   53.4893 C.3       1 <0>         0.0647
     13 C9         25.9180    2.3631   52.9485 C.2       1 <0>         0.6628
     14 O2         25.1808    1.9722   53.8501 O.2       1 <0>        -0.5850
     15 C10        25.3644    3.2869   51.9413 C.ar      1 <0>        -0.1825
     16 C11        24.8688    4.5404   52.3005 C.ar      1 <0>         0.1954
     17 C12        24.3516    5.3917   51.3241 C.ar      1 <0>         0.0504
     18 F1         23.8724    6.5988   51.6571 F         1 <0>        -0.1149
     19 C13        24.3299    4.9897   49.9886 C.ar      1 <0>         0.1382
     20 F2         23.8332    5.8071   49.0509 F         1 <0>        -0.1194
     21 C14        24.8255    3.7362   49.6295 C.ar      1 <0>        -0.1806
     22 C15        25.3427    2.8848   50.6059 C.ar      1 <0>        -0.0694
     23 N3         24.8826    4.9643   53.6480 N.pl3     1 <0>        -0.6208
     24 C16        24.0452    5.8221   54.3843 C.ar      1 <0>         0.1371
     25 C17        24.5615    6.5587   55.4504 C.ar      1 <0>         0.0911
     26 F3         25.8561    6.4574   55.7835 F         1 <0>        -0.1344
     27 C18        23.7292    7.4086   56.1787 C.ar      1 <0>        -0.1083
     28 C19        22.3805    7.5219   55.8411 C.ar      1 <0>         0.0207
     29 I1         21.1408    8.7876   56.9261 I         1 <0>        -0.1308
     30 C20        21.8643    6.7853   54.7750 C.ar      1 <0>        -0.0834
     31 C21        22.6966    5.9354   54.0466 C.ar      1 <0>        -0.1407
     32 H2         31.7468    0.7060   54.2589 H         1 <0>         0.3678
     33 H3         31.4872   -1.6488   54.0532 H         1 <0>         0.0399
     34 H4         30.2029   -1.3800   52.8769 H         1 <0>         0.0399
     35 H5         33.1507   -0.6437   52.5199 H         1 <0>         0.0486
     36 H6         32.2787   -1.9340   51.6948 H         1 <0>         0.0486
     37 H7         32.5586    0.1464   50.2995 H         1 <0>         0.0454
     38 H8         30.8752   -0.3411   50.4967 H         1 <0>         0.0454
     39 H9         32.3681    1.8948   51.9608 H         1 <0>         0.0487
     40 H10        31.0251    2.0697   50.8402 H         1 <0>         0.0487
     41 H11        28.0978   -0.1905   51.1775 H         1 <0>         0.4044
     42 H12        28.7566    3.2645   52.0118 H         1 <0>         0.0750
     43 H13        27.9184    2.2483   50.7978 H         1 <0>         0.0750
     44 H14        28.3285    1.2714   54.4806 H         1 <0>         0.0750
     45 H15        27.4450    0.0138   53.5614 H         1 <0>         0.0750
     46 H16        24.8084    3.4236   48.5896 H         1 <0>         0.1603
     47 H17        25.7260    1.9106   50.3132 H         1 <0>         0.1459
     48 H18        25.6476    4.5722   54.1874 H         1 <0>         0.4493
     49 H19        24.1522    7.9733   57.0056 H         1 <0>         0.1620
     50 H20        20.8164    6.8586   54.4951 H         1 <0>         0.1512
     51 H21        22.2839    5.3659   53.2177 H         1 <0>         0.1501
@<TRIPOS>BOND
     1    1    6 1
     2    1    2 1
     3    2    3 1
     4    3    4 1
     5    4    5 1
     6    5    6 1
     7    6    7 1
     8    6    8 1
     9    8   12 1
    10    8    9 1
    11    8   10 1
    12   10   11 1
    13   11   12 1
    14   11   13 am
    15   13   14 2
    16   13   15 1
    17   15   22 ar
    18   15   16 ar
    19   16   17 ar
    20   17   18 1
    21   17   19 ar
    22   19   20 1
    23   19   21 ar
    24   21   22 ar
    25   16   23 1
    26   23   24 1
    27   24   31 ar
    28   24   25 ar
    29   25   26 1
    30   25   27 ar
    31   27   28 ar
    32   28   29 1
    33   28   30 ar
    34   30   31 ar
    35    1   32 1
    36    2   33 1
    37    2   34 1
    38    3   35 1
    39    3   36 1
    40    4   37 1
    41    4   38 1
    42    5   39 1
    43    5   40 1
    44    9   41 1
    45   10   42 1
    46   10   43 1
    47   12   44 1
    48   12   45 1
    49   21   46 1
    50   22   47 1
    51   23   48 1
    52   27   49 1
    53   30   50 1
    54   31   51 1
@<TRIPOS>MOLECULE
Osimertinib
   70    73     0     0     0
SMALL
USER_CHARGES

@<TRIPOS>ATOM
      1 C1         30.9696   -1.2471   53.9013 C.ar      1 <0>        -0.1403
      2 C2         30.3271   -1.5316   55.1096 C.ar      1 <0>        -0.1154
      3 C3         29.0827   -0.9805   55.4089 C.ar      1 <0>        -0.1518
      4 C4         28.4419   -0.1253   54.5051 C.ar      1 <0>        -0.0870
      5 C5         29.0703    0.1761   53.2805 C.ar      1 <0>        -0.0637
      6 C6         30.3172   -0.3905   53.0074 C.ar      1 <0>         0.0779
      7 C7         28.7228    0.9808   52.1595 C.2       1 <0>        -0.2343
      8 C8         29.7464    0.8890   51.2447 C.2       1 <0>         0.0586
      9 N1         30.7033    0.0595   51.7650 N.pl3     1 <0>        -0.4890
     10 C9         31.9375   -0.2845   51.0924 C.3       1 <0>         0.2077
     11 C10        27.5526    1.7774   51.9250 C.ar      1 <0>         0.5708
     12 N2         27.3260    2.7648   52.8161 N.ar      1 <0>        -0.7534
     13 C11        26.2241    3.5019   52.5795 C.ar      1 <0>         0.8802
     14 N3         25.3510    3.3501   51.5655 N.ar      1 <0>        -0.7298
     15 C12        25.6383    2.3449   50.7126 C.ar      1 <0>         0.4605
     16 C13        26.7354    1.5182   50.8436 C.ar      1 <0>        -0.4057
     17 N4         25.9555    4.5451   53.4923 N.pl3     1 <0>        -0.7288
     18 C14        24.9252    5.5006   53.5702 C.ar      1 <0>         0.1853
     19 C15        24.5117    5.9988   54.8058 C.ar      1 <0>         0.0067
     20 O1         25.0945    5.5738   55.9623 O.3       1 <0>        -0.3476
     21 C16        26.2289    6.3051   56.4223 C.3       1 <0>         0.1130
     22 C17        23.4886    6.9449   54.8692 C.ar      1 <0>        -0.1086
     23 C18        22.8790    7.3926   53.6972 C.ar      1 <0>         0.0467
     24 C19        23.2925    6.8943   52.4617 C.ar      1 <0>         0.1089
     25 C20        24.3156    5.9483   52.3983 C.ar      1 <0>        -0.1689
     26 N5         22.6972    7.3297   51.2744 N.am      1 <0>        -0.4596
     27 C21        22.9947    6.9312   49.9656 C.2       1 <0>         0.6614
     28 O2         23.8412    6.1186   49.6127 O.2       1 <0>        -0.5879
     29 C22        22.1319    7.6311   48.9701 C.2       1 <0>        -0.2408
     30 C23        22.2644    7.3847   47.6630 C.2       1 <0>        -0.1315
     31 N6         21.8450    8.3513   53.7855 N.pl3     1 <0>        -0.7089
     32 C24        20.4661    7.9297   53.9192 C.3       1 <0>         0.2013
     33 C25        22.1546    9.7658   53.7571 C.3       1 <0>         0.2087
     34 C26        22.3961   10.3177   55.1480 C.3       1 <0>         0.1397
     35 N7         21.2491   10.1590   56.0005 N.3       1 <0>        -0.7444
     36 C27        20.2417   11.1995   55.7423 C.3       1 <0>         0.1613
     37 C28        21.6299   10.1864   57.4213 C.3       1 <0>         0.1613
     38 H1         31.9384   -1.6790   53.6735 H         1 <0>         0.1277
     39 H2         30.8066   -2.1933   55.8265 H         1 <0>         0.1328
     40 H3         28.6028   -1.2166   56.3550 H         1 <0>         0.1296
     41 H4         27.4720    0.2961   54.7539 H         1 <0>         0.1378
     42 H5         29.8772    1.3409   50.2696 H         1 <0>         0.1764
     43 H6         32.6957    0.4516   51.3756 H         1 <0>         0.0509
     44 H7         32.2516   -1.2889   51.3931 H         1 <0>         0.0509
     45 H8         31.7782   -0.2706   50.0096 H         1 <0>         0.0509
     46 H9         24.9384    2.2180   49.8936 H         1 <0>         0.0289
     47 H10        26.9284    0.7219   50.1354 H         1 <0>         0.1592
     48 H11        26.6418    4.6187   54.2367 H         1 <0>         0.4672
     49 H12        26.5881    5.8576   57.3483 H         1 <0>         0.0389
     50 H13        25.9401    7.3430   56.5855 H         1 <0>         0.0389
     51 H14        27.0058    6.2526   55.6605 H         1 <0>         0.0389
     52 H15        23.1699    7.3299   55.8351 H         1 <0>         0.1444
     53 H16        24.6391    5.5594   51.4348 H         1 <0>         0.2004
     54 H17        21.9507    8.0266   51.3742 H         1 <0>         0.3317
     55 H18        21.3927    8.3457   49.3156 H         1 <0>         0.1317
     56 H19        21.6556    7.8739   46.9108 H         1 <0>         0.1300
     57 H20        23.0043    6.6700   47.3182 H         1 <0>         0.1300
     58 H21        19.8203    8.8055   53.9716 H         1 <0>         0.0297
     59 H22        20.3489    7.3404   54.8282 H         1 <0>         0.0297
     60 H23        20.1825    7.3236   53.0592 H         1 <0>         0.0297
     61 H24        23.0291    9.8862   53.1148 H         1 <0>         0.0549
     62 H25        21.3010   10.2619   53.2915 H         1 <0>         0.0549
     63 H26        23.2252    9.7834   55.6221 H         1 <0>         0.0344
     64 H27        22.6408   11.3844   55.1208 H         1 <0>         0.0344
     65 H28        19.4033   11.0357   56.4062 H         1 <0>         0.0304
     66 H29        19.9266   11.1247   54.7098 H         1 <0>         0.0304
     67 H30        20.6897   12.1663   55.9303 H         1 <0>         0.0304
     68 H31        20.7354   10.0637   58.0172 H         1 <0>         0.0304
     69 H32        22.0981   11.1387   57.6336 H         1 <0>         0.0304
     70 H33        22.3226    9.3762   57.6075 H         1 <0>         0.0304
@<TRIPOS>BOND
     1    1    6 ar
     2    1    2 ar
     3    2    3 ar
     4    3    4 ar
     5    4    5 ar
     6    5    6 ar
     7    6    9 1
     8    5    7 1
     9    7    8 2
    10    8    9 1
    11    9   10 1
    12    7   11 1
    13   11   16 ar
    14   11   12 ar
    15   12   13 ar
    16   13   14 ar
    17   14   15 ar
    18   15   16 ar
    19   13   17 1
    20   17   18 1
    21   18   25 ar
    22   18   19 ar
    23   19   20 1
    24   20   21 1
    25   19   22 ar
    26   22   23 ar
    27   23   24 ar
    28   24   25 ar
    29   24   26 1
    30   26   27 am
    31   27   28 2
    32   27   29 1
    33   29   30 2
    34   23   31 1
    35   31   32 1
    36   31   33 1
    37   33   34 1
    38   34   35 1
    39   35   36 1
    40   35   37 1
    41    1   38 1
    42    2   39 1
    43    3   40 1
    44    4   41 1
    45    8   42 1
    46   10   43 1
    47   10   44 1
    48   10   45 1
    49   15   46 1
    50   16   47 1
    51   17   48 1
    52   21   49 1
    53   21   50 1
    54   21   51 1
    55   22   52 1
    56   25   53 1
    57   26   54 1
    58   29   55 1
    59   30   56 1
    60   30   57 1
    61   32   58 1
    62   32   59 1
    63   32   60 1
    64   33   61 1
    65   33   62 1
    66   34   63 1
    67   34   64 1
    68   36   65 1
    69   36   66 1
    70   36   67 1
    71   37   68 1
    72   37   69 1
    73   37   70 1
@<TRIPOS>MOLECULE
Alectinib
   70    75     0     0     0
SMALL
USER_CHARGES

@<TRIPOS>ATOM
      1 C1         22.0436    9.4215   55.7136 C.3       1 <0>         0.1305
      2 C2         22.1809    9.8343   57.1763 C.3       1 <0>         0.1237
      3 O1         21.0597    9.3724   57.9306 O.3       1 <0>        -0.4138
      4 C3         20.9581    7.9492   57.8688 C.3       1 <0>         0.1237
      5 C4         20.7922    7.4903   56.4229 C.3       1 <0>         0.1305
      6 N1         21.9279    7.9598   55.6170 N.3       1 <0>        -0.7244
      7 C5         21.7855    7.5465   54.2404 C.3       1 <0>         0.1915
      8 C6         21.5657    6.0355   54.1252 C.3       1 <0>        -0.0894
      9 C7         22.8356    5.2358   54.4177 C.3       1 <0>         0.2375
     10 N2         23.9461    5.7223   53.5906 N.pl3     1 <0>        -0.7510
     11 C8         24.2452    7.1526   53.7084 C.3       1 <0>         0.2375
     12 C9         22.9929    7.9796   53.4066 C.3       1 <0>        -0.0894
     13 C10        24.8727    4.8368   53.0874 C.ar      1 <0>         0.1830
     14 C11        24.6838    4.2377   51.8480 C.ar      1 <0>        -0.0794
     15 C12        25.6331    3.3449   51.3560 C.ar      1 <0>        -0.0779
     16 C13        23.4742    4.5336   51.0221 C.3       1 <0>        -0.0322
     17 C14        23.6910    5.7156   50.0825 C.3       1 <0>        -0.0859
     18 C15        26.0123    4.5443   53.8386 C.ar      1 <0>        -0.1635
     19 C16        26.9921    3.6455   53.3703 C.ar      1 <0>        -0.0331
     20 C17        26.7821    3.0451   52.1052 C.ar      1 <0>        -0.1564
     21 C18        28.2369    3.3514   54.2345 C.3       1 <0>         0.0432
     22 C19        27.7975    2.7482   55.5873 C.3       1 <0>        -0.0884
     23 C20        29.0206    4.6607   54.4767 C.3       1 <0>        -0.0884
     24 C21        29.1371    2.3678   53.5327 C.2       1 <0>         0.1331
     25 C22        28.9318    1.7848   52.3028 C.2       1 <0>        -0.2264
     26 C23        27.7568    2.0793   51.5158 C.2       1 <0>         0.6190
     27 O2         27.5571    1.5715   50.4196 O.2       1 <0>        -0.5486
     28 C24        30.0385    0.9240   52.0397 C.ar      1 <0>        -0.0227
     29 C25        30.8947    1.0153   53.1403 C.ar      1 <0>         0.0593
     30 N3         30.3244    1.8971   54.0298 N.pl3     1 <0>        -0.5642
     31 C26        32.0941    0.2993   53.2291 C.ar      1 <0>        -0.0993
     32 C27        32.4310   -0.5363   52.1615 C.ar      1 <0>        -0.0089
     33 C28        33.6479   -1.2853   52.2127 C.1       1 <0>         0.2360
     34 N4         34.6360   -1.8935   52.2543 N.1       1 <0>        -0.3691
     35 C29        31.5995   -0.6492   51.0502 C.ar      1 <0>        -0.1136
     36 C30        30.4027    0.0729   50.9751 C.ar      1 <0>        -0.0825
     37 H1         22.9240    9.7706   55.1621 H         1 <0>         0.0419
     38 H2         21.1571    9.9028   55.2803 H         1 <0>         0.0419
     39 H3         23.1059    9.4477   57.6217 H         1 <0>         0.0538
     40 H4         22.2074   10.9258   57.2549 H         1 <0>         0.0538
     41 H5         21.8413    7.4982   58.3370 H         1 <0>         0.0538
     42 H6         20.0833    7.6517   58.4560 H         1 <0>         0.0538
     43 H7         20.7370    6.3959   56.4005 H         1 <0>         0.0419
     44 H8         19.8510    7.8870   56.0204 H         1 <0>         0.0419
     45 H9         20.8926    8.0546   53.8386 H         1 <0>         0.0163
     46 H10        20.7624    5.7098   54.7974 H         1 <0>         0.0551
     47 H11        21.2266    5.8023   53.1071 H         1 <0>         0.0551
     48 H12        23.0986    5.3016   55.4810 H         1 <0>         0.0327
     49 H13        22.6362    4.1792   54.1977 H         1 <0>         0.0327
     50 H14        24.6271    7.3799   54.7116 H         1 <0>         0.0327
     51 H15        25.0267    7.4359   52.9917 H         1 <0>         0.0327
     52 H16        23.2086    9.0435   53.5655 H         1 <0>         0.0551
     53 H17        22.7469    7.8729   52.3416 H         1 <0>         0.0551
     54 H18        25.4677    2.8853   50.3839 H         1 <0>         0.1622
     55 H19        23.1902    3.6491   50.4314 H         1 <0>         0.0514
     56 H20        22.6104    4.7418   51.6722 H         1 <0>         0.0514
     57 H21        22.7935    5.9152   49.4873 H         1 <0>         0.0370
     58 H22        24.5170    5.5139   49.3932 H         1 <0>         0.0370
     59 H23        23.9315    6.6252   50.6432 H         1 <0>         0.0370
     60 H24        26.1357    5.0264   54.8065 H         1 <0>         0.1366
     61 H25        28.6779    2.5461   56.1846 H         1 <0>         0.0465
     62 H26        27.2562    1.8286   55.4028 H         1 <0>         0.0465
     63 H27        27.1586    3.4582   56.0977 H         1 <0>         0.0465
     64 H28        29.8906    4.4424   55.0833 H         1 <0>         0.0465
     65 H29        28.3780    5.3648   54.9905 H         1 <0>         0.0465
     66 H30        29.3277    5.0681   53.5215 H         1 <0>         0.0465
     67 H31        30.7270    2.1577   54.9194 H         1 <0>         0.4598
     68 H32        32.7339    0.3965   54.1015 H         1 <0>         0.1451
     69 H33        31.8677   -1.3015   50.2215 H         1 <0>         0.1463
     70 H34        29.7684   -0.0289   50.0993 H         1 <0>         0.1661
@<TRIPOS>BOND
     1    1    6 1
     2    1    2 1
     3    2    3 1
     4    3    4 1
     5    4    5 1
     6    5    6 1
     7    6    7 1
     8    7   12 1
     9    7    8 1
    10    8    9 1
    11    9   10 1
    12   10   11 1
    13   11   12 1
    14   10   13 1
    15   13   14 ar
    16   14   15 ar
    17   15   20 ar
    18   14   16 1
    19   16   17 1
    20   13   18 ar
    21   18   19 ar
    22   19   20 ar
    23   20   26 1
    24   19   21 1
    25   21   22 1
    26   21   23 1
    27   21   24 1
    28   24   30 1
    29   24   25 2
    30   25   26 1
    31   26   27 2
    32   25   28 1
    33   28   36 ar
    34   28   29 ar
    35   29   30 1
    36   29   31 ar
    37   31   32 ar
    38   32   33 1
    39   33   34 3
    40   32   35 ar
    41   35   36 ar
    42    1   37 1
    43    1   38 1
    44    2   39 1
    45    2   40 1
    46    4   41 1
    47    4   42 1
    48    5   43 1
    49    5   44 1
    50    7   45 1
    51    8   46 1
    52    8   47 1
    53    9   48 1
    54    9   49 1
    55   11   50 1
    56   11   51 1
    57   12   52 1
    58   12   53 1
    59   15   54 1
    60   16   55 1
    61   16   56 1
    62   17   57 1
    63   17   58 1
    64   17   59 1
    65   18   60 1
    66   22   61 1
    67   22   62 1
    68   22   63 1
    69   23   64 1
    70   23   65 1
    71   23   66 1
    72   30   67 1
    73   31   68 1
    74   35   69 1
    75   36   70 1
@<TRIPOS>MOLECULE
Brigatinib
   79    83     0     0     0
SMALL
USER_CHARGES

@<TRIPOS>ATOM
      1 C1         38.5261   -2.0371   48.9631 C.3       1 <0>         0.1501
      2 N1         37.3207   -1.9517   49.7853 N.3       1 <0>        -0.7213
      3 C2         36.1151   -1.9900   48.9485 C.3       1 <0>         0.1628
      4 C3         34.8504   -1.8975   49.8092 C.3       1 <0>         0.1693
      5 N2         34.8653   -0.6806   50.6301 N.3       1 <0>        -0.7317
      6 C4         36.0704   -0.6427   51.4677 C.3       1 <0>         0.1693
      7 C5         37.3356   -0.7360   50.6079 C.3       1 <0>         0.1628
      8 C6         33.6755   -0.5946   51.4403 C.3       1 <0>         0.1924
      9 C7         32.4217   -0.6281   50.5652 C.3       1 <0>        -0.0893
     10 C8         31.1472   -0.4745   51.3959 C.3       1 <0>         0.2280
     11 N3         31.2339    0.7221   52.2391 N.pl3     1 <0>        -0.7184
     12 C9         32.4075    0.7947   53.1181 C.3       1 <0>         0.2280
     13 C10        33.6886    0.6731   52.2970 C.3       1 <0>        -0.0893
     14 C11        30.1255    1.4966   52.4991 C.ar      1 <0>         0.1694
     15 C12        29.6943    1.6787   53.8131 C.ar      1 <0>        -0.1752
     16 C13        28.5718    2.4637   54.0764 C.ar      1 <0>         0.0658
     17 O1         28.1647    2.6280   55.3668 O.3       1 <0>        -0.3549
     18 C14        27.2313    1.6786   55.8771 C.3       1 <0>         0.1154
     19 C15        27.8804    3.0666   53.0256 C.ar      1 <0>         0.1127
     20 C16        28.3116    2.8845   51.7116 C.ar      1 <0>        -0.0967
     21 C17        29.4342    2.0994   51.4484 C.ar      1 <0>        -0.1492
     22 N4         26.7414    3.8623   53.2770 N.pl3     1 <0>        -0.7052
     23 C18        25.5828    4.1314   52.5246 C.ar      1 <0>         0.9067
     24 N5         25.4962    3.5359   51.3199 N.ar      1 <0>        -0.7574
     25 C19        24.3735    3.8157   50.6260 C.ar      1 <0>         0.4921
     26 C20        23.3726    4.6452   51.0891 C.ar      1 <0>        -0.3327
     27 Cl1        21.9794    4.9410   50.1320 Cl        1 <0>        -0.0462
     28 C21        23.5817    5.1933   52.3382 C.ar      1 <0>         0.7229
     29 N6         24.6792    4.9569   53.0864 N.ar      1 <0>        -0.7941
     30 N7         22.5959    6.0552   52.8786 N.pl3     1 <0>        -0.7838
     31 C22        22.1987    6.3319   54.1968 C.ar      1 <0>         0.2448
     32 C23        22.3162    5.3397   55.1702 C.ar      1 <0>        -0.1590
     33 C24        21.9248    5.6011   56.4833 C.ar      1 <0>        -0.0582
     34 C25        21.4160    6.8546   56.8230 C.ar      1 <0>        -0.1723
     35 C26        21.2985    7.8468   55.8495 C.ar      1 <0>        -0.0289
     36 C27        21.6898    7.5854   54.5364 C.ar      1 <0>        -0.4912
     37 P1         21.5259    8.8689   53.3281 P.3       1 <0>         1.5037
     38 O2         20.6330    8.5613   52.1566 O.2       1 <0>        -0.9133
     39 C28        23.1620    9.3233   52.7420 C.3       1 <0>        -0.4621
     40 C29        20.9599   10.3645   54.1467 C.3       1 <0>        -0.4621
     41 H1         38.5031   -2.9457   48.3558 H         1 <0>         0.0316
     42 H2         39.4159   -2.0607   49.5982 H         1 <0>         0.0316
     43 H3         38.5926   -1.1713   48.2988 H         1 <0>         0.0316
     44 H4         36.1220   -1.1735   48.2135 H         1 <0>         0.0376
     45 H5         36.0826   -2.9325   48.3885 H         1 <0>         0.0376
     46 H6         33.9799   -1.8837   49.1420 H         1 <0>         0.0374
     47 H7         34.7654   -2.7940   50.4384 H         1 <0>         0.0374
     48 H8         36.1029    0.2999   52.0276 H         1 <0>         0.0374
     49 H9         36.0626   -1.4590   52.2028 H         1 <0>         0.0374
     50 H10        37.4217    0.1611   49.9797 H         1 <0>         0.0376
     51 H11        38.2057   -0.7510   51.2756 H         1 <0>         0.0376
     52 H12        33.6582   -1.4637   52.1049 H         1 <0>         0.0193
     53 H13        32.4609    0.1560   49.8032 H         1 <0>         0.0558
     54 H14        32.3823   -1.5829   50.0298 H         1 <0>         0.0558
     55 H15        30.2658   -0.4171   50.7456 H         1 <0>         0.0361
     56 H16        31.0330   -1.3693   52.0204 H         1 <0>         0.0361
     57 H17        32.3965    1.7335   53.6868 H         1 <0>         0.0361
     58 H18        32.3829   -0.0258   53.8471 H         1 <0>         0.0361
     59 H19        33.8121    1.5580   51.6711 H         1 <0>         0.0558
     60 H20        34.5442    0.6388   52.9751 H         1 <0>         0.0558
     61 H21        30.2306    1.2100   54.6351 H         1 <0>         0.1466
     62 H22        26.9973    1.9310   56.9107 H         1 <0>         0.0417
     63 H23        27.6686    0.6824   55.8159 H         1 <0>         0.0417
     64 H24        26.3269    1.7236   55.2715 H         1 <0>         0.0417
     65 H25        27.7816    3.3501   50.8846 H         1 <0>         0.1595
     66 H26        29.7613    1.9632   50.4207 H         1 <0>         0.1437
     67 H27        26.7657    4.3315   54.1768 H         1 <0>         0.4625
     68 H28        24.3104    3.3323   49.6559 H         1 <0>         0.0399
     69 H29        22.0811    6.5676   52.1721 H         1 <0>         0.5056
     70 H30        22.7112    4.3589   54.9178 H         1 <0>         0.1563
     71 H31        22.0161    4.8287   57.2414 H         1 <0>         0.1395
     72 H32        21.1119    7.0588   57.8455 H         1 <0>         0.1387
     73 H33        20.9014    8.8211   56.1198 H         1 <0>         0.1329
     74 H34        23.0850   10.1157   51.9938 H         1 <0>         0.0941
     75 H35        23.7719    9.6810   53.5749 H         1 <0>         0.0941
     76 H36        23.6519    8.4570   52.2911 H         1 <0>         0.0941
     77 H37        20.8516   11.1717   53.4184 H         1 <0>         0.0941
     78 H38        19.9936   10.1867   54.6245 H         1 <0>         0.0941
     79 H39        21.6809   10.6695   54.9088 H         1 <0>         0.0941
@<TRIPOS>BOND
     1    1    2 1
     2    2    7 1
     3    2    3 1
     4    3    4 1
     5    4    5 1
     6    5    6 1
     7    6    7 1
     8    5    8 1
     9    8   13 1
    10    8    9 1
    11    9   10 1
    12   10   11 1
    13   11   12 1
    14   12   13 1
    15   11   14 1
    16   14   21 ar
    17   14   15 ar
    18   15   16 ar
    19   16   17 1
    20   17   18 1
    21   16   19 ar
    22   19   20 ar
    23   20   21 ar
    24   19   22 1
    25   22   23 1
    26   23   29 ar
    27   23   24 ar
    28   24   25 ar
    29   25   26 ar
    30   26   27 1
    31   26   28 ar
    32   28   29 ar
    33   28   30 1
    34   30   31 1
    35   31   36 ar
    36   31   32 ar
    37   32   33 ar
    38   33   34 ar
    39   34   35 ar
    40   35   36 ar
    41   36   37 1
    42   37   38 2
    43   37   39 1
    44   37   40 1
    45    1   41 1
    46    1   42 1
    47    1   43 1
    48    3   44 1
    49    3   45 1
    50    4   46 1
    51    4   47 1
    52    6   48 1
    53    6   49 1
    54    7   50 1
    55    7   51 1
    56    8   52 1
    57    9   53 1
    58    9   54 1
    59   10   55 1
    60   10   56 1
    61   12   57 1
    62   12   58 1
    63   13   59 1
    64   13   60 1
    65   15   61 1
    66   18   62 1
    67   18   63 1
    68   18   64 1
    69   20   65 1
    70   21   66 1
    71   22   67 1
    72   25   68 1
    73   30   69 1
    74   32   70 1
    75   33   71 1
    76   34   72 1
    77   35   73 1
    78   39   74 1
    79   39   75 1
    80   39   76 1
    81   40   77 1
    82   40   78 1
    83   40   79 1
@<TRIPOS>MOLECULE
Cabozantinib
   61    65     0     0     0
SMALL
USER_CHARGES

@<TRIPOS>ATOM
      1 C1         36.2291   -1.1815   48.1460 C.3       1 <0>         0.1210
      2 O1         35.0374   -1.8886   48.4684 O.3       1 <0>        -0.3459
      3 C2         34.2893   -1.3942   49.4940 C.ar      1 <0>         0.1002
      4 C3         34.7178   -0.2450   50.1631 C.ar      1 <0>        -0.1885
      5 C4         33.1102   -2.0219   49.8760 C.ar      1 <0>         0.0750
      6 O2         32.6785   -3.1422   49.2345 O.3       1 <0>        -0.3393
      7 C5         31.4577   -3.7222   49.6914 C.3       1 <0>         0.1173
      8 C6         32.3624   -1.4984   50.9269 C.ar      1 <0>        -0.0984
      9 C7         32.7936   -0.3425   51.5997 C.ar      1 <0>        -0.1574
     10 C8         33.9897    0.3002   51.2170 C.ar      1 <0>         0.4159
     11 C9         32.0605    0.2057   52.6607 C.ar      1 <0>         0.1706
     12 C10        32.5130    1.3482   53.3048 C.ar      1 <0>        -0.3309
     13 C11        33.6942    1.9063   52.8597 C.ar      1 <0>         0.4415
     14 N1         34.4313    1.4090   51.8403 N.ar      1 <0>        -0.6766
     15 O3         30.8938   -0.3575   53.0894 O.3       1 <0>        -0.2420
     16 C12        29.7495    0.4173   53.0309 C.ar      1 <0>         0.0429
     17 C13        28.8703    0.4452   54.1134 C.ar      1 <0>        -0.1009
     18 C14        27.7161    1.2262   54.0546 C.ar      1 <0>        -0.1613
     19 C15        27.4411    1.9794   52.9132 C.ar      1 <0>         0.0733
     20 C16        28.3203    1.9515   51.8306 C.ar      1 <0>        -0.1613
     21 C17        29.4745    1.1704   51.8895 C.ar      1 <0>        -0.1009
     22 N2         26.2847    2.7577   52.8529 N.am      1 <0>        -0.4594
     23 C18        25.8441    3.5726   51.8016 C.2       1 <0>         0.7113
     24 O4         26.3939    3.7576   50.7206 O.2       1 <0>        -0.5686
     25 C19        24.5383    4.2518   52.1300 C.3       1 <0>        -0.2958
     26 C20        23.3507    3.8151   51.3161 C.3       1 <0>        -0.0970
     27 C21        23.9784    5.1482   51.0593 C.3       1 <0>        -0.0970
     28 C22        24.3273    4.6218   53.5320 C.2       1 <0>         0.7102
     29 O5         24.3194    3.7794   54.4544 O.2       1 <0>        -0.5801
     30 N3         24.1363    6.0029   53.7065 N.am      1 <0>        -0.4605
     31 C23        23.9061    6.7285   54.8994 C.ar      1 <0>         0.0530
     32 C24        23.1530    7.9021   54.8676 C.ar      1 <0>        -0.1433
     33 C25        22.9266    8.6177   56.0434 C.ar      1 <0>        -0.1378
     34 C26        23.4535    8.1597   57.2509 C.ar      1 <0>         0.1006
     35 F1         23.2385    8.8482   58.3795 F         1 <0>        -0.1396
     36 C27        24.2068    6.9860   57.2827 C.ar      1 <0>        -0.1378
     37 C28        24.4331    6.2705   56.1070 C.ar      1 <0>        -0.1433
     38 H1         36.7334   -1.6768   47.3126 H         1 <0>         0.0438
     39 H2         36.8857   -1.1550   49.0193 H         1 <0>         0.0438
     40 H3         35.9694   -0.1604   47.8567 H         1 <0>         0.0438
     41 H4         35.6449    0.2329   49.8498 H         1 <0>         0.1650
     42 H5         31.2381   -4.6041   49.0913 H         1 <0>         0.0436
     43 H6         30.6595   -2.9868   49.5987 H         1 <0>         0.0436
     44 H7         31.5807   -4.0060   50.7357 H         1 <0>         0.0436
     45 H8         31.4412   -2.0005   51.2150 H         1 <0>         0.1643
     46 H9         31.9639    1.7910   54.1282 H         1 <0>         0.1586
     47 H10        34.0971    2.7996   53.3255 H         1 <0>         0.0242
     48 H11        29.0796   -0.1387   55.0055 H         1 <0>         0.1546
     49 H12        27.0373    1.2400   54.9036 H         1 <0>         0.1579
     50 H13        28.1156    2.5339   50.9360 H         1 <0>         0.1579
     51 H14        30.1557    1.1534   51.0430 H         1 <0>         0.1546
     52 H15        25.6759    2.7341   53.6791 H         1 <0>         0.3319
     53 H16        23.4727    3.0477   50.5604 H         1 <0>         0.0906
     54 H17        22.3827    3.8003   51.8035 H         1 <0>         0.0906
     55 H18        24.5226    5.2775   50.1308 H         1 <0>         0.0906
     56 H19        23.4325    6.0302   51.3739 H         1 <0>         0.0906
     57 H20        24.1679    6.5598   52.8551 H         1 <0>         0.3220
     58 H21        22.7373    8.2684   53.9323 H         1 <0>         0.1556
     59 H22        22.3406    9.5317   56.0195 H         1 <0>         0.1521
     60 H23        24.6167    6.6303   58.2234 H         1 <0>         0.1521
     61 H24        25.0215    5.3571   56.1437 H         1 <0>         0.1556
@<TRIPOS>BOND
     1    1    2 1
     2    2    3 1
     3    3    4 ar
     4    4   10 ar
     5    3    5 ar
     6    5    6 1
     7    6    7 1
     8    5    8 ar
     9    8    9 ar
    10    9   10 ar
    11   10   14 ar
    12    9   11 ar
    13   11   12 ar
    14   12   13 ar
    15   13   14 ar
    16   11   15 1
    17   15   16 1
    18   16   21 ar
    19   16   17 ar
    20   17   18 ar
    21   18   19 ar
    22   19   20 ar
    23   20   21 ar
    24   19   22 1
    25   22   23 am
    26   23   24 2
    27   23   25 1
    28   25   27 1
    29   25   26 1
    30   26   27 1
    31   25   28 1
    32   28   29 2
    33   28   30 am
    34   30   31 1
    35   31   37 ar
    36   31   32 ar
    37   32   33 ar
    38   33   34 ar
    39   34   35 1
    40   34   36 ar
    41   36   37 ar
    42    1   38 1
    43    1   39 1
    44    1   40 1
    45    4   41 1
    46    7   42 1
    47    7   43 1
    48    7   44 1
    49    8   45 1
    50   12   46 1
    51   13   47 1
    52   17   48 1
    53   18   49 1
    54   20   50 1
    55   21   51 1
    56   22   52 1
    57   26   53 1
    58   26   54 1
    59   27   55 1
    60   27   56 1
    61   30   57 1
    62   32   58 1
    63   33   59 1
    64   36   60 1
    65   37   61 1
@<TRIPOS>MOLECULE
Midostaurin
   73    81     0     0     0
SMALL
USER_CHARGES

@<TRIPOS>ATOM
      1 C1         31.2365   -0.3450   51.7055 C.ar      1 <0>        -0.0965
      2 C2         32.2518    0.0726   50.8450 C.ar      1 <0>        -0.1347
      3 C3         33.3558    0.7593   51.3503 C.ar      1 <0>        -0.1108
      4 C4         33.4445    1.0283   52.7161 C.ar      1 <0>        -0.1347
      5 C5         32.4292    0.6107   53.5766 C.ar      1 <0>        -0.0965
      6 C6         31.3252   -0.0760   53.0713 C.ar      1 <0>        -0.1338
      7 C7         30.2541   -0.5156   53.9795 C.2       1 <0>         0.6717
      8 O1         30.3824   -1.6367   54.4702 O.2       1 <0>        -0.5932
      9 N1         29.1785    0.3495   54.2051 N.am      1 <0>        -0.4658
     10 C8         28.0980   -0.0695   55.0867 C.3       1 <0>         0.0593
     11 C9         29.0383    1.6621   53.6260 C.3       1 <0>         0.1013
     12 H1         30.0653    2.0136   53.4912 H         1 <0>         0.0912
     13 C10        28.3265    1.6259   52.2667 C.3       1 <0>         0.0900
     14 H2         29.0274    1.2304   51.5493 H         1 <0>         0.0682
     15 O2         27.2254    0.7168   52.3286 O.3       1 <0>        -0.4009
     16 C11        27.6519   -0.6322   52.1882 C.3       1 <0>         0.1117
     17 C12        28.2862    2.6000   54.5544 C.3       1 <0>        -0.1335
     18 C13        28.2871    4.0042   53.9527 C.3       1 <0>         0.4513
     19 H3         29.1093    4.5490   54.3878 H         1 <0>         0.0959
     20 O3         28.4997    4.0740   52.5595 O.3       1 <0>        -0.4059
     21 N2         27.1039    4.7612   54.2494 N.pl3     1 <0>        -0.5429
     22 C14        25.9150    4.8630   53.5936 C.ar      1 <0>         0.0932
     23 C15        25.5906    4.1334   52.4145 C.ar      1 <0>         0.1369
     24 N3         26.4321    3.2744   51.7390 N.pl3     1 <0>        -0.5163
     25 C16        27.8798    3.0500   51.7798 C.3       1 <0>         0.4586
     26 C17        28.5129    3.3355   50.3954 C.3       1 <0>        -0.1099
     27 C18        26.9210    5.6164   55.3327 C.ar      1 <0>         0.1481
     28 C19        25.6251    6.2136   55.2752 C.ar      1 <0>        -0.0877
     29 C20        25.2847    7.1212   56.3104 C.ar      1 <0>        -0.0523
     30 C21        26.1822    7.4134   57.3415 C.ar      1 <0>        -0.1718
     31 C22        27.4301    6.8147   57.3768 C.ar      1 <0>        -0.0888
     32 C23        27.8133    5.9147   56.3831 C.ar      1 <0>        -0.1771
     33 C24        24.8704    5.7265   54.1121 C.ar      1 <0>         0.0281
     34 C25        23.5995    5.9149   53.5781 C.ar      1 <0>        -0.1388
     35 C26        23.2462    5.1826   52.4555 C.ar      1 <0>        -0.0610
     36 C27        21.8378    5.4762   52.0584 C.3       1 <0>         0.1363
     37 N4         21.4444    6.4470   53.0582 N.am      1 <0>        -0.5884
     38 C28        22.4536    6.7301   53.9730 C.2       1 <0>         0.7227
     39 O4         22.4087    7.4982   54.9137 O.2       1 <0>        -0.6290
     40 C29        24.2321    4.3348   51.9567 C.ar      1 <0>        -0.0426
     41 C30        24.2708    3.3690   50.8680 C.ar      1 <0>        -0.0782
     42 C31        25.5435    2.7303   50.7866 C.ar      1 <0>         0.1516
     43 C32        25.7493    1.7108   49.8297 C.ar      1 <0>        -0.1534
     44 C33        24.7253    1.3540   48.9494 C.ar      1 <0>        -0.1029
     45 C34        23.4960    1.9865   49.0017 C.ar      1 <0>        -0.1610
     46 C35        23.2609    2.9813   49.9500 C.ar      1 <0>        -0.0773
     47 H4         30.3812   -0.8802   51.3009 H         1 <0>         0.1432
     48 H5         32.1834   -0.1367   49.7815 H         1 <0>         0.1383
     49 H6         34.1469    1.0833   50.6805 H         1 <0>         0.1383
     50 H7         34.3046    1.5624   53.1092 H         1 <0>         0.1383
     51 H8         32.5095    0.8258   54.6391 H         1 <0>         0.1432
     52 H9         28.3289    0.2353   56.1040 H         1 <0>         0.0514
     53 H10        27.9968   -1.1508   55.0419 H         1 <0>         0.0514
     54 H11        27.1707    0.3978   54.7654 H         1 <0>         0.0514
     55 H12        26.7838   -1.2906   52.2410 H         1 <0>         0.0383
     56 H13        28.3581   -0.8705   52.9848 H         1 <0>         0.0383
     57 H14        28.1396   -0.7455   51.2193 H         1 <0>         0.0383
     58 H15        27.2916    2.2421   54.7596 H         1 <0>         0.0780
     59 H16        28.8368    2.6406   55.4861 H         1 <0>         0.0780
     60 H17        29.5791    3.1616   50.4569 H         1 <0>         0.0636
     61 H18        28.3185    4.3660   50.1289 H         1 <0>         0.0636
     62 H19        28.0687    2.6717   49.6653 H         1 <0>         0.0636
     63 H20        24.3175    7.6092   56.3286 H         1 <0>         0.1737
     64 H21        25.8950    8.1135   58.1214 H         1 <0>         0.1355
     65 H22        28.1184    7.0463   58.1856 H         1 <0>         0.1307
     66 H23        28.7946    5.4530   56.4341 H         1 <0>         0.1322
     67 H24        21.7701    5.9358   51.0696 H         1 <0>         0.0592
     68 H25        21.1894    4.6006   52.1407 H         1 <0>         0.0592
     69 H26        20.5253    6.8772   53.0884 H         1 <0>         0.3289
     70 H27        26.6828    1.1768   49.7500 H         1 <0>         0.1349
     71 H28        24.8976    0.5709   48.2163 H         1 <0>         0.1315
     72 H29        22.7073    1.7023   48.3096 H         1 <0>         0.1328
     73 H30        22.2825    3.4511   49.9814 H         1 <0>         0.1336
@<TRIPOS>BOND
     1    1    6 ar
     2    1    2 ar
     3    2    3 ar
     4    3    4 ar
     5    4    5 ar
     6    5    6 ar
     7    6    7 1
     8    7    8 2
     9    7    9 am
    10    9   10 1
    11    9   11 1
    12   11   12 1
    13   11   13 1
    14   13   14 1
    15   13   25 1
    16   13   15 1
    17   15   16 1
    18   11   17 1
    19   17   18 1
    20   18   19 1
    21   18   20 1
    22   20   25 1
    23   18   21 1
    24   21   22 1
    25   22   33 ar
    26   22   23 ar
    27   23   40 ar
    28   23   24 1
    29   24   42 1
    30   24   25 1
    31   25   26 1
    32   21   27 1
    33   27   32 ar
    34   27   28 ar
    35   28   29 ar
    36   29   30 ar
    37   30   31 ar
    38   31   32 ar
    39   28   33 1
    40   33   34 ar
    41   34   38 1
    42   34   35 ar
    43   35   36 1
    44   36   37 1
    45   37   38 am
    46   38   39 2
    47   35   40 ar
    48   40   41 1
    49   41   46 ar
    50   41   42 ar
    51   42   43 ar
    52   43   44 ar
    53   44   45 ar
    54   45   46 ar
    55    1   47 1
    56    2   48 1
    57    3   49 1
    58    4   50 1
    59    5   51 1
    60   10   52 1
    61   10   53 1
    62   10   54 1
    63   16   55 1
    64   16   56 1
    65   16   57 1
    66   17   58 1
    67   17   59 1
    68   26   60 1
    69   26   61 1
    70   26   62 1
    71   29   63 1
    72   30   64 1
    73   31   65 1
    74   32   66 1
    75   36   67 1
    76   36   68 1
    77   37   69 1
    78   43   70 1
    79   44   71 1
    80   45   72 1
    81   46   73 1
@<TRIPOS>MOLECULE
Neratinib
   69    72     0     0     0
SMALL
USER_CHARGES

@<TRIPOS>ATOM
      1 C1         25.5743    7.6126   61.2250 C.3       1 <0>         0.1411
      2 N1         27.0136    7.5307   60.9790 N.3       1 <0>        -0.7093
      3 C2         27.7560    8.1443   62.0794 C.3       1 <0>         0.1411
      4 C3         27.3521    8.1744   59.7136 C.3       1 <0>         0.1682
      5 C4         27.0669    7.2788   58.5447 C.2       1 <0>        -0.0587
      6 C5         26.2098    7.5982   57.5646 C.2       1 <0>        -0.2569
      7 C6         25.9647    6.6539   56.4341 C.2       1 <0>         0.6709
      8 O1         26.5361    5.5716   56.3737 O.2       1 <0>        -0.6001
      9 N2         25.0462    7.1820   55.5363 N.am      1 <0>        -0.4588
     10 C7         24.5721    6.5903   54.3633 C.ar      1 <0>         0.0698
     11 C8         23.6469    7.2443   53.5591 C.ar      1 <0>         0.0856
     12 C9         23.1839    6.6360   52.3897 C.ar      1 <0>        -0.1906
     13 O2         23.1778    8.4800   53.8925 O.3       1 <0>        -0.3582
     14 C10        21.7721    8.6056   54.0955 C.3       1 <0>         0.1292
     15 C11        21.5223    9.6997   55.1086 C.3       1 <0>        -0.1044
     16 C12        25.0319    5.3291   53.9956 C.ar      1 <0>        -0.1526
     17 C13        24.5661    4.7175   52.8193 C.ar      1 <0>        -0.1646
     18 C14        23.6269    5.3757   51.9979 C.ar      1 <0>         0.4117
     19 C15        25.0122    3.4487   52.4255 C.ar      1 <0>         0.2337
     20 C16        24.5331    2.8718   51.2582 C.ar      1 <0>        -0.1663
     21 C17        23.6161    3.5922   50.5200 C.ar      1 <0>         0.4538
     22 N3         23.1601    4.8183   50.8646 N.ar      1 <0>        -0.6652
     23 C18        24.9510    1.5814   50.8066 C.1       1 <0>         0.2494
     24 N4         25.2904    0.5331   50.4397 N.1       1 <0>        -0.3632
     25 N5         25.9572    2.7378   53.2097 N.pl3     1 <0>        -0.6444
     26 C19        27.2429    2.2516   52.9302 C.ar      1 <0>         0.1363
     27 C20        28.0520    2.9115   52.0052 C.ar      1 <0>        -0.1279
     28 C21        29.3307    2.4283   51.7273 C.ar      1 <0>        -0.1334
     29 C22        29.8002    1.2853   52.3744 C.ar      1 <0>         0.0884
     30 C23        28.9910    0.6254   53.2994 C.ar      1 <0>         0.0287
     31 Cl1        29.5464   -0.7902   54.1139 Cl        1 <0>        -0.0691
     32 C24        27.7123    1.1086   53.5772 C.ar      1 <0>        -0.1503
     33 O3         31.0541    0.8363   52.0846 O.3       1 <0>        -0.3189
     34 C25        31.3159    0.4766   50.7299 C.3       1 <0>         0.0804
     35 C26        32.3515   -0.6060   50.7088 C.ar      1 <0>         0.3963
     36 C27        33.6923   -0.2621   50.6463 C.ar      1 <0>        -0.2220
     37 C28        34.6277   -1.2907   50.6281 C.ar      1 <0>        -0.0964
     38 C29        34.1998   -2.6129   50.6726 C.ar      1 <0>        -0.2394
     39 C30        32.8364   -2.8516   50.7342 C.ar      1 <0>         0.3934
     40 N6         31.8978   -1.8788   50.7535 N.ar      1 <0>        -0.6479
     41 H1         25.0252    7.1525   60.3994 H         1 <0>         0.0364
     42 H2         25.2650    8.6575   61.3143 H         1 <0>         0.0364
     43 H3         25.3189    7.0911   62.1514 H         1 <0>         0.0364
     44 H4         28.8178    8.0693   61.8707 H         1 <0>         0.0364
     45 H5         27.5203    7.6201   62.9996 H         1 <0>         0.0364
     46 H6         27.4663    9.1865   62.1625 H         1 <0>         0.0364
     47 H7         26.7679    9.0953   59.6095 H         1 <0>         0.0461
     48 H8         28.4092    8.4620   59.7381 H         1 <0>         0.0461
     49 H9         27.5862    6.3235   58.5312 H         1 <0>         0.1609
     50 H10        25.6822    8.5463   57.5770 H         1 <0>         0.1383
     51 H11        24.6769    8.1043   55.7581 H         1 <0>         0.3377
     52 H12        22.4588    7.1637   51.7718 H         1 <0>         0.1636
     53 H13        21.3044    8.8488   53.1390 H         1 <0>         0.0460
     54 H14        21.3872    7.6488   54.4549 H         1 <0>         0.0460
     55 H15        20.4506    9.8225   55.2881 H         1 <0>         0.0484
     56 H16        22.0157    9.4690   56.0584 H         1 <0>         0.0484
     57 H17        21.9335   10.6527   54.7595 H         1 <0>         0.0484
     58 H18        25.7563    4.8319   54.6377 H         1 <0>         0.1796
     59 H19        23.1987    3.2043   49.5951 H         1 <0>         0.0354
     60 H20        25.6326    2.5490   54.1498 H         1 <0>         0.4370
     61 H21        27.6965    3.8037   51.4964 H         1 <0>         0.1470
     62 H22        29.9560    2.9478   51.0061 H         1 <0>         0.1499
     63 H23        27.0779    0.5978   54.2986 H         1 <0>         0.1545
     64 H24        31.6597    1.3640   50.1917 H         1 <0>         0.0577
     65 H25        30.3846    0.1372   50.2688 H         1 <0>         0.0577
     66 H26        34.0131    0.7735   50.6120 H         1 <0>         0.1482
     67 H27        35.6882   -1.0624   50.5794 H         1 <0>         0.1394
     68 H28        34.9111   -3.4307   50.6595 H         1 <0>         0.1432
     69 H29        32.4512   -3.8653   50.7708 H         1 <0>         0.0228
@<TRIPOS>BOND
     1    1    2 1
     2    2    3 1
     3    2    4 1
     4    4    5 1
     5    5    6 2
     6    6    7 1
     7    7    8 2
     8    7    9 am
     9    9   10 1
    10   10   11 ar
    11   11   12 ar
    12   12   18 ar
    13   11   13 1
    14   13   14 1
    15   14   15 1
    16   10   16 ar
    17   16   17 ar
    18   17   18 ar
    19   18   22 ar
    20   17   19 ar
    21   19   20 ar
    22   20   21 ar
    23   21   22 ar
    24   20   23 1
    25   23   24 3
    26   19   25 1
    27   25   26 1
    28   26   32 ar
    29   26   27 ar
    30   27   28 ar
    31   28   29 ar
    32   29   30 ar
    33   30   31 1
    34   30   32 ar
    35   29   33 1
    36   33   34 1
    37   34   35 1
    38   35   40 ar
    39   35   36 ar
    40   36   37 ar
    41   37   38 ar
    42   38   39 ar
    43   39   40 ar
    44    1   41 1
    45    1   42 1
    46    1   43 1
    47    3   44 1
    48    3   45 1
    49    3   46 1
    50    4   47 1
    51    4   48 1
    52    5   49 1
    53    6   50 1
    54    9   51 1
    55   12   52 1
    56   14   53 1
    57   14   54 1
    58   15   55 1
    59   15   56 1
    60   15   57 1
    61   16   58 1
    62   21   59 1
    63   25   60 1
    64   27   61 1
    65   28   62 1
    66   32   63 1
    67   34   64 1
    68   34   65 1
    69   36   66 1
    70   37   67 1
    71   38   68 1
    72   39   69 1
@<TRIPOS>MOLECULE
Abemaciclib
   69    73     0     0     0
SMALL
USER_CHARGES

@<TRIPOS>ATOM
      1 C1         36.1206    0.6470   49.2010 C.3       1 <0>        -0.0971
      2 C2         36.1014    0.4775   50.6821 C.3       1 <0>         0.1693
      3 N1         34.8314   -0.0894   51.1316 N.3       1 <0>        -0.7292
      4 C3         33.7051    0.7480   50.7011 C.3       1 <0>         0.1653
      5 C4         32.3730    0.1561   51.1744 C.3       1 <0>         0.1720
      6 N2         32.3624   -0.0053   52.6334 N.3       1 <0>        -0.7373
      7 C5         33.4881   -0.8435   53.0640 C.3       1 <0>         0.1720
      8 C6         34.8206   -0.2530   52.5904 C.3       1 <0>         0.1653
      9 C7         31.0922   -0.5705   53.0841 C.3       1 <0>         0.2234
     10 C8         30.0330    0.4783   53.1572 C.ar      1 <0>        -0.2186
     11 C9         28.7573    0.2448   52.6557 C.ar      1 <0>        -0.0671
     12 C10        27.7908    1.2409   52.7386 C.ar      1 <0>        -0.2342
     13 C11        28.1474    2.4433   53.3274 C.ar      1 <0>         0.6309
     14 N3         29.3762    2.7070   53.8255 N.ar      1 <0>        -0.7093
     15 C12        30.2894    1.7150   53.7271 C.ar      1 <0>         0.4319
     16 N4         27.1509    3.4478   53.4056 N.pl3     1 <0>        -0.8155
     17 C13        26.0479    3.7531   52.5925 C.ar      1 <0>         0.8741
     18 N5         25.8580    2.9662   51.5162 N.ar      1 <0>        -0.7194
     19 C14        24.7899    3.2879   50.7572 C.ar      1 <0>         0.4347
     20 C15        23.9386    4.3374   51.0370 C.ar      1 <0>        -0.1580
     21 F1         22.8916    4.6170   50.2537 F         1 <0>        -0.1211
     22 C16        24.2420    5.0669   52.1684 C.ar      1 <0>         0.5161
     23 N6         25.2927    4.8015   52.9721 N.ar      1 <0>        -0.7225
     24 C17        23.4330    6.1912   52.5744 C.ar      1 <0>        -0.1253
     25 C18        22.8085    6.1681   53.8259 C.ar      1 <0>        -0.1150
     26 C19        23.2883    7.2806   51.7122 C.ar      1 <0>        -0.1539
     27 C20        22.5111    8.3883   52.0735 C.ar      1 <0>         0.1804
     28 F2         22.3813    9.4255   51.2370 F         1 <0>        -0.1218
     29 C21        21.8764    8.3819   53.3271 C.ar      1 <0>         0.0470
     30 C22        22.0395    7.2819   54.1645 C.ar      1 <0>         0.0735
     31 N7         21.0700    9.3291   53.9152 N.2       1 <0>        -0.5543
     32 C23        20.7460    8.8233   55.0840 C.2       1 <0>         0.5438
     33 C24        19.8857    9.4673   56.0978 C.3       1 <0>        -0.1165
     34 N8         21.3057    7.5916   55.2808 N.pl3     1 <0>        -0.5802
     35 C25        21.1531    6.7609   56.4540 C.3       1 <0>         0.2377
     36 C26        22.4934    6.4538   57.1447 C.3       1 <0>        -0.1138
     37 C27        20.3797    5.4619   56.1675 C.3       1 <0>        -0.1138
     38 H1         37.0739    1.0720   48.8687 H         1 <0>         0.0393
     39 H2         35.9572   -0.3115   48.6964 H         1 <0>         0.0393
     40 H3         35.3205    1.3316   48.8951 H         1 <0>         0.0393
     41 H4         36.2308    1.4431   51.1802 H         1 <0>         0.0318
     42 H5         36.9002   -0.1960   51.0060 H         1 <0>         0.0318
     43 H6         33.8102    1.7727   51.0828 H         1 <0>         0.0381
     44 H7         33.6857    0.8083   49.6061 H         1 <0>         0.0381
     45 H8         31.5671    0.8354   50.8710 H         1 <0>         0.0373
     46 H9         32.1966   -0.8049   50.6722 H         1 <0>         0.0373
     47 H10        33.5076   -0.9038   54.1590 H         1 <0>         0.0373
     48 H11        33.3821   -1.8683   52.6825 H         1 <0>         0.0373
     49 H12        34.9982    0.7073   53.0936 H         1 <0>         0.0381
     50 H13        35.6261   -0.9332   52.8930 H         1 <0>         0.0381
     51 H14        31.2784   -1.0232   54.0560 H         1 <0>         0.0415
     52 H15        30.8378   -1.3613   52.3817 H         1 <0>         0.0415
     53 H16        28.5088   -0.7096   52.1992 H         1 <0>         0.1435
     54 H17        26.7926    1.0670   52.3499 H         1 <0>         0.1658
     55 H18        31.2661    1.9560   54.1350 H         1 <0>         0.0306
     56 H19        27.2626    4.0606   54.2045 H         1 <0>         0.4673
     57 H20        24.6314    2.6577   49.8886 H         1 <0>         0.0430
     58 H21        22.9136    5.3279   54.5047 H         1 <0>         0.1487
     59 H22        23.7796    7.2854   50.7412 H         1 <0>         0.1628
     60 H23        18.8279    9.1973   55.9487 H         1 <0>         0.0648
     61 H24        20.1663    9.1740   57.1233 H         1 <0>         0.0648
     62 H25        19.9601   10.5673   56.0633 H         1 <0>         0.0648
     63 H26        20.5496    7.3238   57.1881 H         1 <0>         0.0634
     64 H27        22.3555    5.8240   58.0301 H         1 <0>         0.0502
     65 H28        22.9966    7.3724   57.4647 H         1 <0>         0.0502
     66 H29        23.1636    5.9235   56.4591 H         1 <0>         0.0502
     67 H30        20.2868    4.8634   57.0805 H         1 <0>         0.0502
     68 H31        20.8904    4.8517   55.4149 H         1 <0>         0.0502
     69 H32        19.3689    5.6675   55.7993 H         1 <0>         0.0502
@<TRIPOS>BOND
     1    1    2 1
     2    2    3 1
     3    3    8 1
     4    3    4 1
     5    4    5 1
     6    5    6 1
     7    6    7 1
     8    7    8 1
     9    6    9 1
    10    9   10 1
    11   10   15 ar
    12   10   11 ar
    13   11   12 ar
    14   12   13 ar
    15   13   14 ar
    16   14   15 ar
    17   13   16 1
    18   16   17 1
    19   17   23 ar
    20   17   18 ar
    21   18   19 ar
    22   19   20 ar
    23   20   21 1
    24   20   22 ar
    25   22   23 ar
    26   22   24 1
    27   24   25 ar
    28   25   30 ar
    29   24   26 ar
    30   26   27 ar
    31   27   28 1
    32   27   29 ar
    33   29   30 ar
    34   30   34 1
    35   29   31 1
    36   31   32 2
    37   32   33 1
    38   32   34 1
    39   34   35 1
    40   35   36 1
    41   35   37 1
    42    1   38 1
    43    1   39 1
    44    1   40 1
    45    2   41 1
    46    2   42 1
    47    4   43 1
    48    4   44 1
    49    5   45 1
    50    5   46 1
    51    7   47 1
    52    7   48 1
    53    8   49 1
    54    8   50 1
    55    9   51 1
    56    9   52 1
    57   11   53 1
    58   12   54 1
    59   15   55 1
    60   16   56 1
    61   19   57 1
    62   25   58 1
    63   26   59 1
    64   33   60 1
    65   33   61 1
    66   33   62 1
    67   35   63 1
    68   36   64 1
    69   36   65 1
    70   36   66 1
    71   37   67 1
    72   37   68 1
    73   37   69 1
@<TRIPOS>MOLECULE
Acalabrutinib
   58    62     0     0     0
SMALL
USER_CHARGES

@<TRIPOS>ATOM
      1 C1         27.0938    6.2200   56.1165 C.3       1 <0>        -0.0369
      2 C2         25.8060    6.7331   55.6511 C.1       1 <0>        -0.0410
      3 C3         24.7487    7.1543   55.2691 C.1       1 <0>        -0.1725
      4 C4         23.4755    7.6616   54.8090 C.2       1 <0>         0.7089
      5 O1         23.3124    8.8775   54.8252 O.2       1 <0>        -0.5850
      6 N1         22.5286    6.7380   54.3895 N.am      1 <0>        -0.4724
      7 C5         21.1612    7.1341   54.0908 C.3       1 <0>         0.1028
      8 C6         20.3430    5.8875   54.3754 C.3       1 <0>        -0.0936
      9 C7         21.2803    4.7547   53.9716 C.3       1 <0>        -0.0760
     10 C8         22.6778    5.2724   54.3519 C.3       1 <0>         0.1040
     11 H1         22.9521    4.9047   55.3815 H         1 <0>         0.0635
     12 C9         23.7330    4.7690   53.3914 C.2       1 <0>         0.3559
     13 N2         24.7758    4.0310   53.7110 N.2       1 <0>        -0.6132
     14 C10        25.4452    3.8203   52.5277 C.2       1 <0>         0.3637
     15 C11        24.7978    4.4390   51.4846 C.2       1 <0>        -0.3308
     16 N3         23.7020    5.0427   52.0531 N.pl3     1 <0>        -0.0512
     17 C12        25.0297    4.5604   50.0528 C.2       1 <0>         0.7443
     18 N4         26.1076    3.9802   49.4230 N.pl3     1 <0>        -0.9277
     19 N5         24.1729    5.2545   49.3270 N.2       1 <0>        -0.6707
     20 C13        23.0848    5.8420   49.9531 C.2       1 <0>         0.0917
     21 C14        22.8239    5.7617   51.2692 C.2       1 <0>        -0.2116
     22 C15        26.6497    3.0515   52.4553 C.ar      1 <0>        -0.1038
     23 C16        27.8867    3.6776   52.6087 C.ar      1 <0>        -0.1141
     24 C17        29.0612    2.9284   52.5373 C.ar      1 <0>        -0.1024
     25 C18        28.9986    1.5532   52.3125 C.ar      1 <0>        -0.1392
     26 C19        27.7616    0.9272   52.1591 C.ar      1 <0>        -0.1024
     27 C20        26.5871    1.6763   52.2305 C.ar      1 <0>        -0.1141
     28 C21        30.2239    0.7738   52.2361 C.2       1 <0>         0.6798
     29 O2         30.2423   -0.4379   52.4940 O.2       1 <0>        -0.5700
     30 N6         31.3571    1.4863   51.8141 N.am      1 <0>        -0.5496
     31 C22        32.6744    1.0050   51.6070 C.ar      1 <0>         0.5236
     32 C23        32.9072   -0.3404   51.8427 C.ar      1 <0>        -0.2545
     33 C24        34.1959   -0.8227   51.6423 C.ar      1 <0>        -0.0739
     34 C25        35.1980    0.0429   51.2182 C.ar      1 <0>        -0.2735
     35 C26        34.8626    1.3711   51.0103 C.ar      1 <0>         0.4223
     36 N7         33.6222    1.8763   51.1945 N.ar      1 <0>        -0.7129
     37 H2         27.8956    6.4952   55.4247 H         1 <0>         0.0669
     38 H3         27.3416    6.6264   57.1017 H         1 <0>         0.0669
     39 H4         27.0729    5.1288   56.1948 H         1 <0>         0.0669
     40 H5         20.8911    7.9499   54.7664 H         1 <0>         0.0589
     41 H6         21.0676    7.4746   53.0584 H         1 <0>         0.0589
     42 H7         20.0350    5.8183   55.4215 H         1 <0>         0.0609
     43 H8         19.4449    5.8740   53.7483 H         1 <0>         0.0609
     44 H9         21.0481    3.8650   54.5690 H         1 <0>         0.0604
     45 H10        21.1777    4.4947   52.9139 H         1 <0>         0.0604
     46 H11        26.7451    3.4612   49.9762 H         1 <0>         0.4524
     47 H12        26.1981    4.1073   48.4445 H         1 <0>         0.4524
     48 H13        22.4186    6.3981   49.3021 H         1 <0>         0.1719
     49 H14        21.9663    6.2304   51.7344 H         1 <0>         0.1723
     50 H15        27.9524    4.7487   52.7853 H         1 <0>         0.1520
     51 H16        30.0196    3.4267   52.6582 H         1 <0>         0.1488
     52 H17        27.7016   -0.1440   51.9835 H         1 <0>         0.1488
     53 H18        25.6308    1.1731   52.1096 H         1 <0>         0.1520
     54 H19        31.2326    2.4722   51.5977 H         1 <0>         0.3385
     55 H20        32.1192   -1.0094   52.1728 H         1 <0>         0.1731
     56 H21        34.4192   -1.8708   51.8166 H         1 <0>         0.1412
     57 H22        36.2093   -0.3113   51.0550 H         1 <0>         0.1454
     58 H23        35.6073    2.0872   50.6787 H         1 <0>         0.0227
@<TRIPOS>BOND
     1    1    2 1
     2    2    3 3
     3    3    4 1
     4    4    5 2
     5    4    6 am
     6    6   10 1
     7    6    7 1
     8    7    8 1
     9    8    9 1
    10    9   10 1
    11   10   11 1
    12   10   12 1
    13   12   16 1
    14   12   13 2
    15   13   14 1
    16   14   15 2
    17   15   16 1
    18   16   21 1
    19   15   17 1
    20   17   18 1
    21   17   19 2
    22   19   20 1
    23   20   21 2
    24   14   22 1
    25   22   27 ar
    26   22   23 ar
    27   23   24 ar
    28   24   25 ar
    29   25   26 ar
    30   26   27 ar
    31   25   28 1
    32   28   29 2
    33   28   30 am
    34   30   31 1
    35   31   36 ar
    36   31   32 ar
    37   32   33 ar
    38   33   34 ar
    39   34   35 ar
    40   35   36 ar
    41    1   37 1
    42    1   38 1
    43    1   39 1
    44    7   40 1
    45    7   41 1
    46    8   42 1
    47    8   43 1
    48    9   44 1
    49    9   45 1
    50   18   46 1
    51   18   47 1
    52   20   48 1
    53   21   49 1
    54   23   50 1
    55   24   51 1
    56   26   52 1
    57   27   53 1
    58   30   54 1
    59   32   55 1
    60   33   56 1
    61   34   57 1
    62   35   58 1
@<TRIPOS>MOLECULE
Ribociclib
   62    66     0     0     0
SMALL
USER_CHARGES

@<TRIPOS>ATOM
      1 C1         22.4871    5.7780   55.5194 C.3       1 <0>        -0.0894
      2 C2         23.1370    5.7584   56.8950 C.3       1 <0>        -0.0802
      3 C3         24.5927    6.0742   56.5969 C.3       1 <0>        -0.0802
      4 C4         24.5180    7.1694   55.5390 C.3       1 <0>        -0.0894
      5 C5         23.2110    6.9061   54.7650 C.3       1 <0>         0.2300
      6 N1         23.3965    6.6250   53.3439 N.pl3     1 <0>        -0.5528
      7 C6         22.8708    7.3610   52.3131 C.2       1 <0>        -0.0043
      8 C7         22.0534    8.5242   52.4814 C.2       1 <0>         0.6879
      9 O1         22.4612    9.6001   51.9963 O.2       1 <0>        -0.5902
     10 N2         20.8315    8.4285   53.1947 N.am      1 <0>        -0.4737
     11 C8         20.2908    9.5436   53.9593 C.3       1 <0>         0.0810
     12 C9         20.0335    7.2045   53.2101 C.3       1 <0>         0.0810
     13 C10        23.2685    6.7816   51.1269 C.2       1 <0>        -0.1146
     14 C11        24.0658    5.6537   51.4493 C.ar      1 <0>        -0.3633
     15 C12        24.1264    5.5834   52.8357 C.ar      1 <0>         0.6114
     16 C13        24.7542    4.6684   50.7430 C.ar      1 <0>         0.5077
     17 N3         25.4326    3.7133   51.4201 N.ar      1 <0>        -0.7367
     18 C14        25.4042    3.7691   52.7707 C.ar      1 <0>         0.8850
     19 N4         24.7808    4.6629   53.5651 N.ar      1 <0>        -0.7536
     20 N5         26.1227    2.7566   53.4375 N.pl3     1 <0>        -0.8171
     21 C15        27.2799    2.0146   53.0935 C.ar      1 <0>         0.6250
     22 N6         27.8806    2.2607   51.9077 N.ar      1 <0>        -0.6981
     23 C16        28.9804    1.5258   51.6280 C.ar      1 <0>         0.3867
     24 C17        29.5051    0.5619   52.4738 C.ar      1 <0>        -0.0100
     25 C18        28.8593    0.3375   53.6846 C.ar      1 <0>        -0.0934
     26 C19        27.7248    1.0735   54.0079 C.ar      1 <0>        -0.2435
     27 N7         30.6403   -0.1579   52.1238 N.pl3     1 <0>        -0.6524
     28 C20        31.7820   -0.3184   53.0262 C.3       1 <0>         0.1951
     29 C21        32.9249    0.5833   52.5591 C.3       1 <0>         0.1595
     30 N8         33.2758    0.2981   51.1637 N.3       1 <0>        -0.8202
     31 C22        32.1159    0.4523   50.2797 C.3       1 <0>         0.1595
     32 C23        30.9474   -0.4387   50.7179 C.3       1 <0>         0.1951
     33 H1         21.4091    5.9582   55.5831 H         1 <0>         0.0583
     34 H2         22.6322    4.8089   55.0253 H         1 <0>         0.0583
     35 H3         22.7012    6.5372   57.5322 H         1 <0>         0.0490
     36 H4         23.0128    4.7956   57.3984 H         1 <0>         0.0490
     37 H5         25.1412    6.3942   57.4874 H         1 <0>         0.0490
     38 H6         25.0938    5.1898   56.1854 H         1 <0>         0.0490
     39 H7         24.4488    8.1452   56.0355 H         1 <0>         0.0583
     40 H8         25.4124    7.1827   54.9076 H         1 <0>         0.0583
     41 H9         22.5825    7.8355   54.7850 H         1 <0>         0.0820
     42 H10        19.6482   10.1389   53.3160 H         1 <0>         0.0463
     43 H11        21.1092   10.1563   54.3284 H         1 <0>         0.0463
     44 H12        19.7156    9.1588   54.7974 H         1 <0>         0.0463
     45 H13        20.3515    6.5878   54.0444 H         1 <0>         0.0463
     46 H14        20.1845    6.6718   52.2767 H         1 <0>         0.0463
     47 H15        18.9861    7.4662   53.3207 H         1 <0>         0.0463
     48 H16        23.0132    7.1323   50.1358 H         1 <0>         0.1642
     49 H17        24.7845    4.6132   49.6621 H         1 <0>         0.0302
     50 H18        25.7339    2.5096   54.3433 H         1 <0>         0.4591
     51 H19        29.4404    1.7459   50.6693 H         1 <0>         0.0238
     52 H20        29.2317   -0.4079   54.3823 H         1 <0>         0.1450
     53 H21        27.2146    0.9049   54.9506 H         1 <0>         0.1693
     54 H22        31.5048   -0.0398   54.0455 H         1 <0>         0.0428
     55 H23        32.1099   -1.3616   53.0323 H         1 <0>         0.0428
     56 H24        32.6522    1.6365   52.6747 H         1 <0>         0.0355
     57 H25        33.8015    0.4041   53.1860 H         1 <0>         0.0355
     58 H26        34.0130    0.9426   50.8657 H         1 <0>         0.3647
     59 H27        31.8011    1.5028   50.2456 H         1 <0>         0.0355
     60 H28        32.4100    0.1762   49.2611 H         1 <0>         0.0355
     61 H29        30.0844   -0.2235   50.0888 H         1 <0>         0.0428
     62 H30        31.2162   -1.4887   50.5963 H         1 <0>         0.0428
@<TRIPOS>BOND
     1    1    5 1
     2    1    2 1
     3    2    3 1
     4    3    4 1
     5    4    5 1
     6    5    6 1
     7    6   15 1
     8    6    7 1
     9    7    8 1
    10    8    9 2
    11    8   10 am
    12   10   11 1
    13   10   12 1
    14    7   13 2
    15   13   14 1
    16   14   15 ar
    17   15   19 ar
    18   14   16 ar
    19   16   17 ar
    20   17   18 ar
    21   18   19 ar
    22   18   20 1
    23   20   21 1
    24   21   26 ar
    25   21   22 ar
    26   22   23 ar
    27   23   24 ar
    28   24   25 ar
    29   25   26 ar
    30   24   27 1
    31   27   32 1
    32   27   28 1
    33   28   29 1
    34   29   30 1
    35   30   31 1
    36   31   32 1
    37    1   33 1
    38    1   34 1
    39    2   35 1
    40    2   36 1
    41    3   37 1
    42    3   38 1
    43    4   39 1
    44    4   40 1
    45    5   41 1
    46   11   42 1
    47   11   43 1
    48   11   44 1
    49   12   45 1
    50   12   46 1
    51   12   47 1
    52   13   48 1
    53   16   49 1
    54   20   50 1
    55   23   51 1
    56   25   52 1
    57   26   53 1
    58   28   54 1
    59   28   55 1
    60   29   56 1
    61   29   57 1
    62   30   58 1
    63   31   59 1
    64   31   60 1
    65   32   61 1
    66   32   62 1
