@<TRIPOS>MOLECULE
Imatinib
   68    72     0     0     0
SMALL
USER_CHARGES

@<TRIPOS>ATOM
      1 C1         24.8202    1.6473   53.0649 C.ar      1 <0>         0.4239
      2 N1         25.6147    2.3878   52.2599 N.ar      1 <0>        -0.6705
      3 C2         26.5681    1.7168   51.5755 C.ar      1 <0>         0.4070
      4 C3         26.7635    0.3475   51.6578 C.ar      1 <0>        -0.2527
      5 C4         25.9264   -0.3800   52.4964 C.ar      1 <0>        -0.0582
      6 C5         24.9336    0.2748   53.2169 C.ar      1 <0>        -0.2756
      7 C6         24.0495   -0.4534   54.0951 C.ar      1 <0>         0.5369
      8 C7         24.5413   -1.1778   55.1617 C.ar      1 <0>        -0.4080
      9 C8         23.5961   -1.8310   55.9262 C.ar      1 <0>         0.4622
     10 N2         22.2707   -1.7873   55.6780 N.ar      1 <0>        -0.7355
     11 C9         21.9167   -1.0475   54.6100 C.ar      1 <0>         0.8855
     12 N3         22.7384   -0.3662   53.7888 N.ar      1 <0>        -0.7535
     13 N4         20.5392   -0.9788   54.3205 N.pl3     1 <0>        -0.7180
     14 C10        19.8053   -0.3197   53.3098 C.ar      1 <0>         0.1767
     15 C11        18.6019   -0.8481   52.8424 C.ar      1 <0>        -0.1447
     16 C12        18.0520   -2.1231   53.3942 C.3       1 <0>        -0.0513
     17 C13        17.8901   -0.1843   51.8433 C.ar      1 <0>        -0.0884
     18 C14        18.3816    1.0078   51.3114 C.ar      1 <0>        -0.1657
     19 C15        19.5850    1.5361   51.7787 C.ar      1 <0>         0.0838
     20 C16        20.2969    0.8723   52.7779 C.ar      1 <0>        -0.1920
     21 N5         20.0841    2.7479   51.2378 N.am      1 <0>        -0.4686
     22 C17        19.5097    3.5396   50.2422 C.2       1 <0>         0.6818
     23 O1         18.4497    3.2865   49.6736 O.2       1 <0>        -0.5864
     24 C18        20.2953    4.7074   49.8759 C.ar      1 <0>        -0.1502
     25 C19        21.1630    5.2830   50.8041 C.ar      1 <0>        -0.0923
     26 C20        21.9167    6.4030   50.4530 C.ar      1 <0>        -0.1278
     27 C21        21.8026    6.9475   49.1739 C.ar      1 <0>        -0.0578
     28 C22        20.9348    6.3719   48.2458 C.ar      1 <0>        -0.1278
     29 C23        20.1812    5.2519   48.5968 C.ar      1 <0>        -0.0923
     30 C24        22.6123    8.1543   48.7969 C.3       1 <0>         0.2164
     31 N6         24.0034    8.0366   49.2298 N.3       1 <0>        -0.7431
     32 C25        24.6234    9.3611   49.3579 C.3       1 <0>         0.1735
     33 C26        26.0830    9.2390   49.8088 C.3       1 <0>         0.1711
     34 N7         26.8493    8.4031   48.8766 N.3       1 <0>        -0.7393
     35 C27        28.2409    8.2863   49.3076 C.3       1 <0>         0.1607
     36 C28        26.2300    7.0782   48.7491 C.3       1 <0>         0.1711
     37 C29        24.7700    7.1993   48.2991 C.3       1 <0>         0.1735
     38 H1         24.0662    2.2179   53.5996 H         1 <0>         0.0309
     39 H2         27.1942    2.3291   50.9349 H         1 <0>         0.0253
     40 H3         27.5444   -0.1411   51.0863 H         1 <0>         0.1471
     41 H4         26.0590   -1.4560   52.5784 H         1 <0>         0.1502
     42 H5         25.5968   -1.2393   55.3958 H         1 <0>         0.1591
     43 H6         23.8874   -2.4257   56.7855 H         1 <0>         0.0276
     44 H7         19.9598   -1.5072   54.9668 H         1 <0>         0.4519
     45 H8         17.4010   -1.9159   54.2511 H         1 <0>         0.0436
     46 H9         17.4723   -2.6646   52.6368 H         1 <0>         0.0436
     47 H10        18.8571   -2.7930   53.7199 H         1 <0>         0.0436
     48 H11        16.9514   -0.5878   51.4727 H         1 <0>         0.1354
     49 H12        17.8185    1.5168   50.5332 H         1 <0>         0.1730
     50 H13        21.2357    1.2845   53.1420 H         1 <0>         0.1593
     51 H14        20.9657    3.0798   51.6210 H         1 <0>         0.3215
     52 H15        21.2602    4.8670   51.8036 H         1 <0>         0.1471
     53 H16        22.5898    6.8450   51.1829 H         1 <0>         0.1433
     54 H17        20.8395    6.7897   47.2472 H         1 <0>         0.1433
     55 H18        19.5084    4.8115   47.8655 H         1 <0>         0.1471
     56 H19        22.6080    8.2983   47.7110 H         1 <0>         0.0422
     57 H20        22.1973    9.0623   49.2470 H         1 <0>         0.0422
     58 H21        24.5753    9.9100   48.4075 H         1 <0>         0.0379
     59 H22        24.0805    9.9536   50.1043 H         1 <0>         0.0379
     60 H23        26.5172   10.2455   49.8467 H         1 <0>         0.0376
     61 H24        26.1219    8.8280   50.8268 H         1 <0>         0.0376
     62 H25        28.7773    7.6641   48.5988 H         1 <0>         0.0320
     63 H26        28.2689    7.8340   50.2937 H         1 <0>         0.0320
     64 H27        28.6846    9.2760   49.3424 H         1 <0>         0.0320
     65 H28        26.7727    6.4858   48.0026 H         1 <0>         0.0376
     66 H29        26.2789    6.5297   49.6997 H         1 <0>         0.0376
     67 H30        24.7308    7.6088   47.2804 H         1 <0>         0.0379
     68 H31        24.3359    6.1928   48.2626 H         1 <0>         0.0379
@<TRIPOS>BOND
     1    1    6 ar
     2    1    2 ar
     3    2    3 ar
     4    3    4 ar
     5    4    5 ar
     6    5    6 ar
     7    6    7 1
     8    7   12 ar
     9    7    8 ar
    10    8    9 ar
    11    9   10 ar
    12   10   11 ar
    13   11   12 ar
    14   11   13 1
    15   13   14 1
    16   14   20 ar
    17   14   15 ar
    18   15   16 1
    19   15   17 ar
    20   17   18 ar
    21   18   19 ar
    22   19   20 ar
    23   19   21 1
    24   21   22 am
    25   22   23 2
    26   22   24 1
    27   24   29 ar
    28   24   25 ar
    29   25   26 ar
    30   26   27 ar
    31   27   28 ar
    32   28   29 ar
    33   27   30 1
    34   30   31 1
    35   31   37 1
    36   31   32 1
    37   32   33 1
    38   33   34 1
    39   34   35 1
    40   34   36 1
    41   36   37 1
    42    1   38 1
    43    3   39 1
    44    4   40 1
    45    5   41 1
    46    8   42 1
    47    9   43 1
    48   13   44 1
    49   16   45 1
    50   16   46 1
    51   16   47 1
    52   17   48 1
    53   18   49 1
    54   20   50 1
    55   21   51 1
    56   25   52 1
    57   26   53 1
    58   28   54 1
    59   29   55 1
    60   30   56 1
    61   30   57 1
    62   32   58 1
    63   32   59 1
    64   33   60 1
    65   33   61 1
    66   35   62 1
    67   35   63 1
    68   35   64 1
    69   36   65 1
    70   36   66 1
    71   37   67 1
    72   37   68 1
@<TRIPOS>MOLECULE
Dasatinib
   59    62     0     0     0
SMALL
USER_CHARGES

@<TRIPOS>ATOM
      1 Cl1        13.6445   -0.0735   50.5869 Cl        1 <0>        -0.0862
      2 C1         13.1715    1.2063   51.6478 C.ar      1 <0>         0.0149
      3 C2         11.8770    1.7140   51.5371 C.ar      1 <0>        -0.1207
      4 C3         11.4587    2.7466   52.3764 C.ar      1 <0>        -0.1241
      5 C4         12.3350    3.2716   53.3263 C.ar      1 <0>        -0.1225
      6 C5         13.6295    2.7639   53.4369 C.ar      1 <0>        -0.0680
      7 C6         14.5428    3.3482   54.4657 C.3       1 <0>        -0.0578
      8 C7         14.0477    1.7312   52.5976 C.ar      1 <0>         0.0557
      9 N1         15.3661    1.2248   52.7208 N.am      1 <0>        -0.4785
     10 C8         16.3678    1.2043   51.7490 C.2       1 <0>         0.7246
     11 O1         16.2411    1.6396   50.6065 O.2       1 <0>        -0.5892
     12 C9         17.5807    0.5865   52.1677 C.2       1 <0>        -0.3045
     13 C10        18.7612    0.3905   51.4822 C.2       1 <0>         0.4008
     14 N2         19.7654   -0.2509   52.1808 N.2       1 <0>        -0.6463
     15 C11        19.3297   -0.5329   53.3886 C.2       1 <0>         0.6609
     16 S1         17.7216   -0.0560   53.7516 S.3       1 <0>        -0.0508
     17 N3         20.0931   -1.1890   54.3748 N.pl3     1 <0>        -0.8347
     18 C12        21.4830   -1.2282   54.6444 C.ar      1 <0>         0.6999
     19 C13        22.3122   -0.5015   53.8146 C.ar      1 <0>        -0.4476
     20 C14        23.6585   -0.5659   54.1106 C.ar      1 <0>         0.6859
     21 N4         24.1673   -1.2811   55.1353 N.ar      1 <0>        -0.7651
     22 C15        23.2567   -1.9463   55.8713 C.ar      1 <0>         0.6975
     23 N5         21.9230   -1.9645   55.6859 N.ar      1 <0>        -0.7121
     24 C16        23.7812   -2.7486   57.0135 C.3       1 <0>        -0.1358
     25 N6         24.5336    0.1572   53.2924 N.pl3     1 <0>        -0.7566
     26 C17        24.3533    1.6119   53.2052 C.3       1 <0>         0.1942
     27 C18        25.0010    2.1575   51.9305 C.3       1 <0>         0.1719
     28 N7         26.4078    1.7479   51.8377 N.3       1 <0>        -0.7484
     29 C19        26.5009    0.2831   51.8153 C.3       1 <0>         0.1719
     30 C20        25.9023   -0.3258   53.0857 C.3       1 <0>         0.1942
     31 C21        27.0308    2.3199   50.6446 C.3       1 <0>         0.1732
     32 C22        27.4204    3.7714   50.8975 C.3       1 <0>         0.1284
     33 O2         28.0231    4.3046   49.7251 O.3       1 <0>        -0.6058
     34 H1         11.1813    1.3158   50.8027 H         1 <0>         0.1482
     35 H2         10.4510    3.1424   52.2906 H         1 <0>         0.1381
     36 H3         11.9995    4.0758   53.9756 H         1 <0>         0.1374
     37 H4         14.4443    2.8045   55.4120 H         1 <0>         0.0510
     38 H5         15.5886    3.2981   54.1398 H         1 <0>         0.0510
     39 H6         14.3129    4.4057   54.6432 H         1 <0>         0.0510
     40 H7         15.6113    0.8292   53.6251 H         1 <0>         0.3229
     41 H8         18.9467    0.6981   50.4613 H         1 <0>         0.0447
     42 H9         19.5366   -1.7439   55.0190 H         1 <0>         0.4593
     43 H10        21.9308    0.0819   52.9843 H         1 <0>         0.1545
     44 H11        23.8188   -2.1381   57.9241 H         1 <0>         0.0647
     45 H12        23.1496   -3.6251   57.2084 H         1 <0>         0.0647
     46 H13        24.7913   -3.1254   56.8055 H         1 <0>         0.0647
     47 H14        23.2847    1.8604   53.1941 H         1 <0>         0.0525
     48 H15        24.7979    2.0943   54.0858 H         1 <0>         0.0525
     49 H16        24.4321    1.8207   51.0534 H         1 <0>         0.0402
     50 H17        24.9344    3.2521   51.9577 H         1 <0>         0.0402
     51 H18        25.9952   -0.1320   50.9330 H         1 <0>         0.0402
     52 H19        27.5533   -0.0208   51.7568 H         1 <0>         0.0402
     53 H20        25.9079   -1.4189   52.9909 H         1 <0>         0.0525
     54 H21        26.5236   -0.0644   53.9527 H         1 <0>         0.0525
     55 H22        26.3269    2.2518   49.8015 H         1 <0>         0.0481
     56 H23        27.9281    1.7357   50.3925 H         1 <0>         0.0481
     57 H24        28.1480    3.8396   51.7123 H         1 <0>         0.0292
     58 H25        26.5442    4.3775   51.1498 H         1 <0>         0.0292
     59 H26        28.2561    5.2255   49.9247 H         1 <0>         0.4034
@<TRIPOS>BOND
     1    1    2 1
     2    2    8 ar
     3    2    3 ar
     4    3    4 ar
     5    4    5 ar
     6    5    6 ar
     7    6    7 1
     8    6    8 ar
     9    8    9 1
    10    9   10 am
    11   10   11 2
    12   10   12 1
    13   12   16 1
    14   12   13 2
    15   13   14 1
    16   14   15 2
    17   15   16 1
    18   15   17 1
    19   17   18 1
    20   18   23 ar
    21   18   19 ar
    22   19   20 ar
    23   20   21 ar
    24   21   22 ar
    25   22   23 ar
    26   22   24 1
    27   20   25 1
    28   25   30 1
    29   25   26 1
    30   26   27 1
    31   27   28 1
    32   28   29 1
    33   29   30 1
    34   28   31 1
    35   31   32 1
    36   32   33 1
    37    3   34 1
    38    4   35 1
    39    5   36 1
    40    7   37 1
    41    7   38 1
    42    7   39 1
    43    9   40 1
    44   13   41 1
    45   17   42 1
    46   19   43 1
    47   24   44 1
    48   24   45 1
    49   24   46 1
    50   26   47 1
    51   26   48 1
    52   27   49 1
    53   27   50 1
    54   29   51 1
    55   29   52 1
    56   30   53 1
    57   30   54 1
    58   31   55 1
    59   31   56 1
    60   32   57 1
    61   32   58 1
    62   33   59 1
@<TRIPOS>MOLECULE
Nilotinib
   61    65     0     0     0
SMALL
USER_CHARGES

@<TRIPOS>ATOM
      1 C1         29.4017    6.7199   47.5076 C.3       1 <0>        -0.1181
      2 C2         27.9742    6.6672   47.8577 C.2       1 <0>         0.3159
      3 N1         27.0963    7.5940   47.3538 N.2       1 <0>        -0.6596
      4 C3         25.9293    7.2577   47.8568 C.2       1 <0>         0.4175
      5 N2         26.0216    6.1564   48.6617 N.pl3     1 <0>        -0.1524
      6 C4         27.3308    5.7650   48.6717 C.2       1 <0>        -0.2386
      7 C5         24.9798    5.5504   49.3398 C.ar      1 <0>         0.0639
      8 C6         25.2219    4.4271   50.1306 C.ar      1 <0>        -0.1818
      9 C7         24.1712    3.8168   50.8155 C.ar      1 <0>         0.1030
     10 C8         22.8784    4.3297   50.7097 C.ar      1 <0>        -0.1557
     11 C9         22.6363    5.4530   49.9188 C.ar      1 <0>        -0.1092
     12 C10        23.6871    6.0633   49.2339 C.ar      1 <0>        -0.1500
     13 C11        21.2542    6.0012   49.8056 C.3       1 <0>         0.6861
     14 F1         20.3277    5.3045   50.5284 F         1 <0>        -0.2339
     15 F2         21.1414    7.2933   50.2342 F         1 <0>        -0.2339
     16 F3         20.7922    6.0001   48.5212 F         1 <0>        -0.2339
     17 N3         24.4129    2.6931   51.6067 N.am      1 <0>        -0.4722
     18 C12        25.5859    2.3517   52.3098 C.2       1 <0>         0.6899
     19 O1         26.6051    3.0388   52.3172 O.2       1 <0>        -0.5798
     20 C13        25.5340    1.0648   53.0244 C.ar      1 <0>        -0.1454
     21 C14        26.7095    0.3535   53.2652 C.ar      1 <0>        -0.1108
     22 C15        26.6610   -0.8653   53.9419 C.ar      1 <0>        -0.1329
     23 C16        25.4370   -1.3728   54.3778 C.ar      1 <0>        -0.0217
     24 C17        25.4145   -2.6805   55.1001 C.3       1 <0>        -0.0600
     25 C18        24.2615   -0.6614   54.1369 C.ar      1 <0>         0.1372
     26 C19        24.3100    0.5573   53.4602 C.ar      1 <0>        -0.1005
     27 N4         23.0136   -1.1602   54.5710 N.pl3     1 <0>        -0.7290
     28 C20        21.7066   -1.0234   54.0680 C.ar      1 <0>         0.8745
     29 N5         20.7303   -1.6502   54.7517 N.ar      1 <0>        -0.7309
     30 C21        19.4904   -1.4982   54.2419 C.ar      1 <0>         0.4584
     31 C22        19.2126   -0.7626   53.1078 C.ar      1 <0>        -0.4005
     32 C23        20.3001   -0.1696   52.4996 C.ar      1 <0>         0.5333
     33 N6         21.5656   -0.2794   52.9544 N.ar      1 <0>        -0.7375
     34 C24        20.1447    0.6276   51.3065 C.ar      1 <0>        -0.2758
     35 C25        21.1620    0.7110   50.3623 C.ar      1 <0>        -0.0612
     36 C26        20.9831    1.4867   49.2224 C.ar      1 <0>        -0.2511
     37 C27        19.7779    2.1543   49.0749 C.ar      1 <0>         0.4055
     38 N7         18.7668    2.0977   49.9704 N.ar      1 <0>        -0.6648
     39 C28        18.9772    1.3339   51.0658 C.ar      1 <0>         0.4246
     40 H1         29.5884    6.1271   46.6069 H         1 <0>         0.0496
     41 H2         29.7218    7.7511   47.3254 H         1 <0>         0.0496
     42 H3         30.0190    6.3287   48.3233 H         1 <0>         0.0496
     43 H4         24.9947    7.7719   47.6742 H         1 <0>         0.0706
     44 H5         27.6823    4.9115   49.2361 H         1 <0>         0.1855
     45 H6         26.2300    4.0261   50.2155 H         1 <0>         0.1788
     46 H7         22.0575    3.8550   51.2428 H         1 <0>         0.1631
     47 H8         23.4944    6.9399   48.6189 H         1 <0>         0.1578
     48 H9         23.6350    2.0284   51.6872 H         1 <0>         0.3260
     49 H10        27.6687    0.7396   52.9300 H         1 <0>         0.1367
     50 H11        27.5825   -1.4118   54.1246 H         1 <0>         0.1422
     51 H12        25.5234   -2.5199   56.1787 H         1 <0>         0.0558
     52 H13        24.4750   -3.2165   54.9190 H         1 <0>         0.0558
     53 H14        26.2266   -3.3346   54.7596 H         1 <0>         0.0558
     54 H15        23.3935    1.1126   53.2720 H         1 <0>         0.1590
     55 H16        23.0743   -1.7274   55.4106 H         1 <0>         0.4525
     56 H17        18.6997   -2.0010   54.7885 H         1 <0>         0.0307
     57 H18        18.2017   -0.6658   52.7318 H         1 <0>         0.1608
     58 H19        22.0988    0.1771   50.5014 H         1 <0>         0.1476
     59 H20        21.7621    1.5675   48.4731 H         1 <0>         0.1474
     60 H21        19.5887    2.7723   48.2029 H         1 <0>         0.0259
     61 H22        18.1456    1.3115   51.7643 H         1 <0>         0.0309
@<TRIPOS>BOND
     1    1    2 1
     2    2    6 2
     3    2    3 1
     4    3    4 2
     5    4    5 1
     6    5    6 1
     7    5    7 1
     8    7   12 ar
     9    7    8 ar
    10    8    9 ar
    11    9   10 ar
    12   10   11 ar
    13   11   12 ar
    14   11   13 1
    15   13   14 1
    16   13   15 1
    17   13   16 1
    18    9   17 1
    19   17   18 am
    20   18   19 2
    21   18   20 1
    22   20   26 ar
    23   20   21 ar
    24   21   22 ar
    25   22   23 ar
    26   23   24 1
    27   23   25 ar
    28   25   26 ar
    29   25   27 1
    30   27   28 1
    31   28   33 ar
    32   28   29 ar
    33   29   30 ar
    34   30   31 ar
    35   31   32 ar
    36   32   33 ar
    37   32   34 1
    38   34   39 ar
    39   34   35 ar
    40   35   36 ar
    41   36   37 ar
    42   37   38 ar
    43   38   39 ar
    44    1   40 1
    45    1   41 1
    46    1   42 1
    47    4   43 1
    48    6   44 1
    49    8   45 1
    50   10   46 1
    51   12   47 1
    52   17   48 1
    53   21   49 1
    54   22   50 1
    55   24   51 1
    56   24   52 1
    57   24   53 1
    58   26   54 1
    59   27   55 1
    60   30   56 1
    61   31   57 1
    62   35   58 1
    63   36   59 1
    64   37   60 1
    65   39   61 1
@<TRIPOS>MOLECULE
Bosutinib
   65    68     0     0     0
SMALL
USER_CHARGES

@<TRIPOS>ATOM
      1 C1         26.3903    4.5935   54.8515 C.3       1 <0>         0.1175
      2 O1         26.9042    3.2825   54.6477 O.3       1 <0>        -0.3385
      3 C2         26.5800    2.6722   53.4726 C.ar      1 <0>         0.1270
      4 C3         25.4207    1.8986   53.4163 C.ar      1 <0>        -0.1667
      5 C4         25.0639    1.2622   52.2275 C.ar      1 <0>         0.1806
      6 C5         25.8666    1.3992   51.0949 C.ar      1 <0>        -0.0174
      7 Cl1        25.4615    0.6268   49.6037 Cl        1 <0>        -0.0703
      8 C6         27.0260    2.1727   51.1513 C.ar      1 <0>        -0.0895
      9 C7         27.3827    2.8092   52.3401 C.ar      1 <0>        -0.0098
     10 Cl2        28.8215    3.7602   52.3820 Cl        1 <0>        -0.0629
     11 N1         23.8877    0.4865   52.2018 N.pl3     1 <0>        -0.6932
     12 C8         23.2098   -0.2654   53.1959 C.ar      1 <0>         0.2667
     13 C9         23.9419   -0.8397   54.2251 C.ar      1 <0>        -0.1798
     14 C10        25.3614   -0.7058   54.3306 C.1       1 <0>         0.2439
     15 N2         26.5143   -0.5969   54.4162 N.1       1 <0>        -0.3592
     16 C11        23.2492   -1.5642   55.1738 C.ar      1 <0>         0.4641
     17 N3         21.9089   -1.7461   55.1599 N.ar      1 <0>        -0.6675
     18 C12        21.2010   -1.1876   54.1599 C.ar      1 <0>         0.4332
     19 C13        21.8190   -0.4292   53.1436 C.ar      1 <0>        -0.1777
     20 C14        19.8193   -1.3499   54.1076 C.ar      1 <0>        -0.2150
     21 C15        19.0536   -0.7847   53.0847 C.ar      1 <0>         0.1221
     22 C16        19.6690   -0.0390   52.0869 C.ar      1 <0>         0.0850
     23 C17        21.0491    0.1394   52.1147 C.ar      1 <0>        -0.1111
     24 O2         18.9373    0.5183   51.0833 O.3       1 <0>        -0.3287
     25 C18        18.7386   -0.2692   49.9104 C.3       1 <0>         0.1175
     26 O3         17.6968   -0.9735   53.0779 O.3       1 <0>        -0.3290
     27 C19        17.2380   -2.3169   53.0053 C.3       1 <0>         0.1289
     28 C20        15.8952   -2.3383   52.2851 C.3       1 <0>        -0.0894
     29 C21        14.8314   -1.5111   52.9947 C.3       1 <0>         0.1788
     30 N4         15.2047   -0.1030   53.1145 N.3       1 <0>        -0.7382
     31 C22        14.4829    0.5352   54.2221 C.3       1 <0>         0.1720
     32 C23        14.8711    2.0126   54.3469 C.3       1 <0>         0.1688
     33 N5         14.6160    2.7274   53.0904 N.3       1 <0>        -0.7357
     34 C24        14.9872    4.1359   53.2098 C.3       1 <0>         0.1591
     35 C25        15.3385    2.0899   51.9828 C.3       1 <0>         0.1688
     36 C26        14.9516    0.6122   51.8578 C.3       1 <0>         0.1720
     37 H1         26.7202    4.9679   55.8237 H         1 <0>         0.0461
     38 H2         25.2984    4.5684   54.8102 H         1 <0>         0.0461
     39 H3         26.7677    5.2497   54.0637 H         1 <0>         0.0461
     40 H4         24.7985    1.7949   54.3023 H         1 <0>         0.1591
     41 H5         27.6533    2.2791   50.2688 H         1 <0>         0.1666
     42 H6         23.4365    0.4599   51.2916 H         1 <0>         0.4548
     43 H7         23.7556   -2.0416   56.0081 H         1 <0>         0.0373
     44 H8         19.3192   -1.9313   54.8810 H         1 <0>         0.1659
     45 H9         21.5086    0.7269   51.3228 H         1 <0>         0.1521
     46 H10        18.1409    0.2992   49.1991 H         1 <0>         0.0432
     47 H11        18.2312   -1.1931   50.1856 H         1 <0>         0.0432
     48 H12        19.7123   -0.4956   49.4783 H         1 <0>         0.0432
     49 H13        17.1481   -2.7057   54.0244 H         1 <0>         0.0404
     50 H14        17.9814   -2.9089   52.4618 H         1 <0>         0.0404
     51 H15        15.5519   -3.3772   52.2042 H         1 <0>         0.0661
     52 H16        16.0301   -1.9862   51.2545 H         1 <0>         0.0661
     53 H17        13.8922   -1.5454   52.4340 H         1 <0>         0.0316
     54 H18        14.6424   -1.8942   54.0026 H         1 <0>         0.0316
     55 H19        13.3966    0.4494   54.0832 H         1 <0>         0.0369
     56 H20        14.7317    0.0328   55.1648 H         1 <0>         0.0369
     57 H21        14.2765    2.4580   55.1539 H         1 <0>         0.0374
     58 H22        15.9276    2.0936   54.6367 H         1 <0>         0.0374
     59 H23        14.7866    4.6333   52.2666 H         1 <0>         0.0321
     60 H24        16.0438    4.2042   53.4477 H         1 <0>         0.0321
     61 H25        14.4002    4.5905   54.0011 H         1 <0>         0.0321
     62 H26        15.0896    2.5922   51.0402 H         1 <0>         0.0374
     63 H27        16.4248    2.1765   52.1221 H         1 <0>         0.0374
     64 H28        13.8955    0.5308   51.5664 H         1 <0>         0.0369
     65 H29        15.5473    0.1670   51.0516 H         1 <0>         0.0369
@<TRIPOS>BOND
     1    1    2 1
     2    2    3 1
     3    3    9 ar
     4    3    4 ar
     5    4    5 ar
     6    5    6 ar
     7    6    7 1
     8    6    8 ar
     9    8    9 ar
    10    9   10 1
    11    5   11 1
    12   11   12 1
    13   12   19 ar
    14   12   13 ar
    15   13   14 1
    16   14   15 3
    17   13   16 ar
    18   16   17 ar
    19   17   18 ar
    20   18   19 ar
    21   19   23 ar
    22   18   20 ar
    23   20   21 ar
    24   21   22 ar
    25   22   23 ar
    26   22   24 1
    27   24   25 1
    28   21   26 1
    29   26   27 1
    30   27   28 1
    31   28   29 1
    32   29   30 1
    33   30   36 1
    34   30   31 1
    35   31   32 1
    36   32   33 1
    37   33   34 1
    38   33   35 1
    39   35   36 1
    40    1   37 1
    41    1   38 1
    42    1   39 1
    43    4   40 1
    44    8   41 1
    45   11   42 1
    46   16   43 1
    47   20   44 1
    48   23   45 1
    49   25   46 1
    50   25   47 1
    51   25   48 1
    52   27   49 1
    53   27   50 1
    54   28   51 1
    55   28   52 1
    56   29   53 1
    57   29   54 1
    58   31   55 1
    59   31   56 1
    60   32   57 1
    61   32   58 1
    62   34   59 1
    63   34   60 1
    64   34   61 1
    65   35   62 1
    66   35   63 1
    67   36   64 1
    68   36   65 1
@<TRIPOS>MOLECULE
Ponatinib
   66    70     0     0     0
SMALL
USER_CHARGES

@<TRIPOS>ATOM
      1 N1         13.0362    1.4095   53.8022 N.2       1 <0>        -0.4757
      2 C1         11.9776    1.4141   54.5511 C.2       1 <0>         0.3929
      3 C2         11.0596    2.5582   54.7662 C.2       1 <0>        -0.2592
      4 C3         11.3523    3.6958   54.1254 C.2       1 <0>        -0.1520
      5 C4         12.4945    3.7539   53.2930 C.2       1 <0>         0.4170
      6 N2         13.2598    2.6052   53.1880 N.pl3     1 <0>         0.0690
      7 N3         12.9970    4.7303   52.5647 N.2       1 <0>        -0.6481
      8 C5         14.1154    4.2006   51.9733 C.2       1 <0>         0.3642
      9 C6         14.2994    2.8896   52.3423 C.2       1 <0>        -0.0943
     10 C7         15.3406    1.9921   51.9469 C.1       1 <0>        -0.0666
     11 C8         16.2151    1.2381   51.6149 C.1       1 <0>        -0.0835
     12 C9         17.2568    0.3398   51.2195 C.ar      1 <0>         0.0114
     13 C10        18.4169    0.2698   51.9910 C.ar      1 <0>        -0.0418
     14 C11        19.4462   -0.5978   51.6255 C.ar      1 <0>        -0.1632
     15 C12        19.3154   -1.3953   50.4886 C.ar      1 <0>        -0.0904
     16 C13        18.1553   -1.3253   49.7172 C.ar      1 <0>        -0.1474
     17 C14        17.1261   -0.4577   50.0827 C.ar      1 <0>        -0.0170
     18 C15        15.8975   -0.4089   49.2319 C.3       1 <0>        -0.0666
     19 C16        20.6728   -0.6718   52.4376 C.2       1 <0>         0.6883
     20 O1         20.7791   -1.4885   53.3501 O.2       1 <0>        -0.5819
     21 N4         21.6751    0.2189   52.0501 N.am      1 <0>        -0.4704
     22 C17        22.9511    0.3591   52.5967 C.ar      1 <0>         0.0678
     23 C18        23.3467   -0.4519   53.6604 C.ar      1 <0>        -0.1332
     24 C19        24.6223   -0.3121   54.2072 C.ar      1 <0>        -0.1013
     25 C20        25.5023    0.6387   53.6902 C.ar      1 <0>        -0.0512
     26 C21        25.1067    1.4497   52.6265 C.ar      1 <0>        -0.1398
     27 C22        23.8311    1.3099   52.0797 C.ar      1 <0>        -0.1516
     28 C23        26.0317    2.4746   52.0569 C.3       1 <0>         0.6854
     29 F1         27.2479    2.5155   52.6754 F         1 <0>        -0.2395
     30 F2         26.3092    2.2827   50.7342 F         1 <0>        -0.2395
     31 F3         25.5301    3.7399   52.1478 F         1 <0>        -0.2395
     32 C24        26.8700    0.7708   54.2953 C.3       1 <0>         0.2180
     33 N5         27.8446   -0.0986   53.6393 N.3       1 <0>        -0.7550
     34 C25        29.0413   -0.2631   54.4735 C.3       1 <0>         0.1761
     35 C26        30.0628   -1.1779   53.7890 C.3       1 <0>         0.1741
     36 N6         29.4695   -2.4846   53.4796 N.3       1 <0>        -0.7442
     37 C27        30.4440   -3.3553   52.8252 C.3       1 <0>         0.1634
     38 C28        28.2740   -2.3192   52.6440 C.3       1 <0>         0.1741
     39 C29        27.2521   -1.4055   53.3292 C.3       1 <0>         0.1761
     40 H1         11.7083    0.4935   55.0939 H         1 <0>         0.0519
     41 H2         10.2039    2.4423   55.4169 H         1 <0>         0.1570
     42 H3         10.7249    4.5731   54.2362 H         1 <0>         0.1716
     43 H4         14.7285    4.7953   51.3107 H         1 <0>         0.0559
     44 H5         18.5246    0.8887   52.8800 H         1 <0>         0.1679
     45 H6         20.1116   -2.0745   50.1944 H         1 <0>         0.1365
     46 H7         18.0642   -1.9514   48.8334 H         1 <0>         0.1420
     47 H8         15.1626   -1.1399   49.5867 H         1 <0>         0.0565
     48 H9         15.4408    0.5875   49.2550 H         1 <0>         0.0565
     49 H10        16.1341   -0.6291   48.1841 H         1 <0>         0.0565
     50 H11        21.4885    0.8309   51.2596 H         1 <0>         0.3227
     51 H12        22.6693   -1.1962   54.0714 H         1 <0>         0.1829
     52 H13        24.9209   -0.9487   55.0359 H         1 <0>         0.1642
     53 H14        23.5238    1.9431   51.2503 H         1 <0>         0.1437
     54 H15        27.2299    1.8023   54.2146 H         1 <0>         0.0554
     55 H16        26.8552    0.5139   55.3598 H         1 <0>         0.0554
     56 H17        29.5041    0.7092   54.6912 H         1 <0>         0.0395
     57 H18        28.7640   -0.7142   55.4341 H         1 <0>         0.0395
     58 H19        30.3935   -0.6925   52.8626 H         1 <0>         0.0366
     59 H20        30.9466   -1.2908   54.4318 H         1 <0>         0.0366
     60 H21        29.9744   -4.3097   52.6111 H         1 <0>         0.0314
     61 H22        31.2910   -3.4991   53.4882 H         1 <0>         0.0314
     62 H23        30.7722   -2.8880   51.9025 H         1 <0>         0.0314
     63 H24        28.5522   -1.8665   51.6846 H         1 <0>         0.0366
     64 H25        27.8115   -3.2911   52.4247 H         1 <0>         0.0366
     65 H26        26.3687   -1.2924   52.6861 H         1 <0>         0.0395
     66 H27        26.9213   -1.8915   54.2550 H         1 <0>         0.0395
@<TRIPOS>BOND
     1    1    6 1
     2    1    2 2
     3    2    3 1
     4    3    4 2
     5    4    5 1
     6    5    6 1
     7    6    9 1
     8    5    7 2
     9    7    8 1
    10    8    9 2
    11    9   10 1
    12   10   11 3
    13   11   12 1
    14   12   17 ar
    15   12   13 ar
    16   13   14 ar
    17   14   15 ar
    18   15   16 ar
    19   16   17 ar
    20   17   18 1
    21   14   19 1
    22   19   20 2
    23   19   21 am
    24   21   22 1
    25   22   27 ar
    26   22   23 ar
    27   23   24 ar
    28   24   25 ar
    29   25   26 ar
    30   26   27 ar
    31   26   28 1
    32   28   29 1
    33   28   30 1
    34   28   31 1
    35   25   32 1
    36   32   33 1
    37   33   39 1
    38   33   34 1
    39   34   35 1
    40   35   36 1
    41   36   37 1
    42   36   38 1
    43   38   39 1
    44    2   40 1
    45    3   41 1
    46    4   42 1
    47    8   43 1
    48   13   44 1
    49   15   45 1
    50   16   46 1
    51   18   47 1
    52   18   48 1
    53   18   49 1
    54   21   50 1
    55   23   51 1
    56   24   52 1
    57   27   53 1
    58   32   54 1
    59   32   55 1
    60   34   56 1
    61   34   57 1
    62   35   58 1
    63   35   59 1
    64   37   60 1
    65   37   61 1
    66   37   62 1
    67   38   63 1
    68   38   64 1
    69   39   65 1
    70   39   66 1
@<TRIPOS>MOLECULE
Gefitinib
   55    58     0     0     0
SMALL
USER_CHARGES

@<TRIPOS>ATOM
      1 F1         30.6404   -1.2690   53.3315 F         1 <0>        -0.1246
      2 C1         29.3098   -1.1050   53.3251 C.ar      1 <0>         0.1198
      3 C2         28.6354   -1.0428   52.1056 C.ar      1 <0>        -0.1425
      4 C3         27.2513   -0.8717   52.0819 C.ar      1 <0>        -0.1030
      5 C4         26.5415   -0.7627   53.2777 C.ar      1 <0>         0.1325
      6 C5         27.2159   -0.8248   54.4972 C.ar      1 <0>        -0.1447
      7 C6         28.6000   -0.9960   54.5209 C.ar      1 <0>        -0.0037
      8 Cl1        29.4270   -1.0716   56.0289 Cl        1 <0>        -0.0636
      9 N1         25.1431   -0.5907   53.2534 N.pl3     1 <0>        -0.7351
     10 C7         24.1127   -0.9727   54.1484 C.ar      1 <0>         0.6901
     11 N2         24.4901   -1.6340   55.2587 N.ar      1 <0>        -0.7486
     12 C8         23.4815   -1.9756   56.0767 C.ar      1 <0>         0.6625
     13 N3         22.1684   -1.7269   55.8972 N.ar      1 <0>        -0.6985
     14 C9         21.8261   -1.0646   54.7783 C.ar      1 <0>         0.4302
     15 C10        22.7920   -0.6540   53.8451 C.ar      1 <0>        -0.2747
     16 C11        20.4932   -0.7637   54.5092 C.ar      1 <0>        -0.1846
     17 C12        20.1177   -0.0761   53.3514 C.ar      1 <0>         0.1036
     18 O1         18.8003    0.1947   53.1332 O.3       1 <0>        -0.3424
     19 C13        18.0487   -0.7810   52.4142 C.3       1 <0>         0.1166
     20 C14        21.0831    0.3250   52.4347 C.ar      1 <0>         0.0844
     21 C15        22.4225    0.0378   52.6785 C.ar      1 <0>        -0.1130
     22 O2         20.7300    0.9995   51.2958 O.3       1 <0>        -0.3395
     23 C16        21.5591    0.8100   50.1568 C.3       1 <0>         0.1318
     24 C17        20.7087    0.9589   48.9011 C.3       1 <0>        -0.0914
     25 C18        20.0555    2.3302   48.7897 C.3       1 <0>         0.1793
     26 N4         21.0341    3.4147   48.7474 N.3       1 <0>        -0.7372
     27 C19        21.6438    3.5156   47.4142 C.3       1 <0>         0.1368
     28 C20        22.6520    4.6608   47.3915 C.3       1 <0>         0.1271
     29 O3         22.0159    5.8902   47.7426 O.3       1 <0>        -0.4158
     30 C21        21.4478    5.8123   49.0506 C.3       1 <0>         0.1271
     31 C22        20.4111    4.6942   49.1142 C.3       1 <0>         0.1368
     32 H1         29.1883   -1.1276   51.1747 H         1 <0>         0.1577
     33 H2         26.7360   -0.8248   51.1260 H         1 <0>         0.1604
     34 H3         26.6586   -0.7404   55.4278 H         1 <0>         0.1534
     35 H4         24.8072   -0.0958   52.4319 H         1 <0>         0.4325
     36 H5         23.7506   -2.5095   56.9800 H         1 <0>         0.0576
     37 H6         19.7227   -1.0698   55.2153 H         1 <0>         0.1703
     38 H7         17.0207   -0.4346   52.3150 H         1 <0>         0.0469
     39 H8         18.0839   -1.7258   52.9556 H         1 <0>         0.0469
     40 H9         18.4950   -0.9026   51.4280 H         1 <0>         0.0469
     41 H10        23.1640    0.3592   51.9508 H         1 <0>         0.1497
     42 H11        22.0056   -0.1874   50.2179 H         1 <0>         0.0453
     43 H12        22.3564    1.5598   50.1790 H         1 <0>         0.0453
     44 H13        19.9300    0.1861   48.9056 H         1 <0>         0.0638
     45 H14        21.3270    0.7562   48.0174 H         1 <0>         0.0638
     46 H15        19.4690    2.3936   47.8678 H         1 <0>         0.0328
     47 H16        19.3854    2.5168   49.6350 H         1 <0>         0.0328
     48 H17        22.1604    2.5828   47.1607 H         1 <0>         0.0404
     49 H18        20.8712    3.6944   46.6550 H         1 <0>         0.0404
     50 H19        23.4916    4.4757   48.0728 H         1 <0>         0.0542
     51 H20        23.0635    4.7756   46.3836 H         1 <0>         0.0542
     52 H21        22.2459    5.6657   49.7884 H         1 <0>         0.0542
     53 H22        20.9709    6.7741   49.2647 H         1 <0>         0.0542
     54 H23        20.0056    4.6418   50.1310 H         1 <0>         0.0404
     55 H24        19.5845    4.9244   48.4294 H         1 <0>         0.0404
@<TRIPOS>BOND
     1    1    2 1
     2    2    7 ar
     3    2    3 ar
     4    3    4 ar
     5    4    5 ar
     6    5    6 ar
     7    6    7 ar
     8    7    8 1
     9    5    9 1
    10    9   10 1
    11   10   15 ar
    12   10   11 ar
    13   11   12 ar
    14   12   13 ar
    15   13   14 ar
    16   14   15 ar
    17   15   21 ar
    18   14   16 ar
    19   16   17 ar
    20   17   18 1
    21   18   19 1
    22   17   20 ar
    23   20   21 ar
    24   20   22 1
    25   22   23 1
    26   23   24 1
    27   24   25 1
    28   25   26 1
    29   26   31 1
    30   26   27 1
    31   27   28 1
    32   28   29 1
    33   29   30 1
    34   30   31 1
    35    3   32 1
    36    4   33 1
    37    6   34 1
    38    9   35 1
    39   12   36 1
    40   16   37 1
    41   19   38 1
    42   19   39 1
    43   19   40 1
    44   21   41 1
    45   23   42 1
    46   23   43 1
    47   24   44 1
    48   24   45 1
    49   25   46 1
    50   25   47 1
    51   27   48 1
    52   27   49 1
    53   28   50 1
    54   28   51 1
    55   30   52 1
    56   30   53 1
    57   31   54 1
    58   31   55 1
@<TRIPOS>MOLECULE
Erlotinib
   52    54     0     0     0
SMALL
USER_CHARGES

@<TRIPOS>ATOM
      1 C1         14.0865    0.2804   53.4017 C.3       1 <0>         0.1145
      2 O1         15.3532   -0.2269   53.7992 O.3       1 <0>        -0.4163
      3 C2         16.3297   -0.0503   52.7801 C.3       1 <0>         0.1162
      4 C3         17.6546   -0.6093   53.2621 C.3       1 <0>         0.1185
      5 O2         18.6313   -0.4326   52.2427 O.3       1 <0>        -0.3112
      6 C4         19.9210   -0.2693   52.6507 C.ar      1 <0>         0.1485
      7 C5         20.3458   -0.8730   53.8379 C.ar      1 <0>        -0.2538
      8 C6         20.8101    0.4894   51.8975 C.ar      1 <0>         0.0850
      9 O3         20.4106    1.0831   50.7395 O.3       1 <0>        -0.3240
     10 C7         21.0952    0.7049   49.5463 C.3       1 <0>         0.1260
     11 C8         20.5068    1.4712   48.3791 C.3       1 <0>         0.1214
     12 O4         20.6675    2.8657   48.6095 O.3       1 <0>        -0.4247
     13 C9         20.1313    3.6348   47.5421 C.3       1 <0>         0.1191
     14 C10        22.1223    0.6427   52.3337 C.ar      1 <0>        -0.1177
     15 C11        22.5417    0.0324   53.5286 C.ar      1 <0>        -0.2973
     16 C12        21.6532   -0.7364   54.2979 C.ar      1 <0>         0.4538
     17 C13        23.8391    0.1459   54.0202 C.ar      1 <0>         0.7129
     18 N1         24.2632   -0.4293   55.1613 N.ar      1 <0>        -0.7587
     19 C14        23.3273   -1.1392   55.8116 C.ar      1 <0>         0.6681
     20 N2         22.0437   -1.3247   55.4421 N.ar      1 <0>        -0.7117
     21 N3         24.7922    0.9063   53.2979 N.pl3     1 <0>        -0.7622
     22 C15        26.1866    0.8038   53.1716 C.ar      1 <0>         0.1633
     23 C16        26.9522    1.9483   52.9486 C.ar      1 <0>        -0.1307
     24 C17        28.3377    1.8470   52.8232 C.ar      1 <0>        -0.1099
     25 C18        28.9576    0.6012   52.9205 C.ar      1 <0>        -0.1286
     26 C19        28.1919   -0.5432   53.1434 C.ar      1 <0>         0.0475
     27 C20        26.8064   -0.4420   53.2689 C.ar      1 <0>        -0.1581
     28 C21        28.8275   -1.8192   53.2431 C.1       1 <0>        -0.1266
     29 C22        29.3629   -2.8944   53.3275 C.1       1 <0>        -0.1340
     30 H1         13.3633    0.1282   54.2066 H         1 <0>         0.0352
     31 H2         13.7545   -0.2346   52.4968 H         1 <0>         0.0352
     32 H3         14.1803    1.3495   53.1965 H         1 <0>         0.0352
     33 H4         15.9842   -0.5727   51.8828 H         1 <0>         0.0455
     34 H5         16.4186    1.0200   52.5725 H         1 <0>         0.0455
     35 H6         17.5764   -1.6795   53.4776 H         1 <0>         0.0610
     36 H7         17.9922   -0.0770   54.1561 H         1 <0>         0.0610
     37 H8         19.6350   -1.4635   54.4142 H         1 <0>         0.1678
     38 H9         22.1553    0.9358   49.6790 H         1 <0>         0.0527
     39 H10        20.9635   -0.3707   49.4070 H         1 <0>         0.0527
     40 H11        19.4376    1.2650   48.2682 H         1 <0>         0.0439
     41 H12        21.0297    1.2143   47.4533 H         1 <0>         0.0439
     42 H13        20.2735    4.6953   47.7554 H         1 <0>         0.0354
     43 H14        19.0691    3.4092   47.4335 H         1 <0>         0.0354
     44 H15        20.6571    3.3729   46.6227 H         1 <0>         0.0354
     45 H16        22.8039    1.2396   51.7321 H         1 <0>         0.1460
     46 H17        23.6355   -1.6157   56.7343 H         1 <0>         0.0552
     47 H18        24.3808    1.6699   52.7744 H         1 <0>         0.4478
     48 H19        26.4795    2.9241   52.8711 H         1 <0>         0.1503
     49 H20        28.9338    2.7382   52.6496 H         1 <0>         0.1380
     50 H21        30.0386    0.5385   52.8205 H         1 <0>         0.1414
     51 H22        26.2052   -1.3324   53.4428 H         1 <0>         0.1383
     52 H23        29.8364   -3.8453   53.4025 H         1 <0>         0.1679
@<TRIPOS>BOND
     1    1    2 1
     2    2    3 1
     3    3    4 1
     4    4    5 1
     5    5    6 1
     6    6    7 ar
     7    7   16 ar
     8    6    8 ar
     9    8    9 1
    10    9   10 1
    11   10   11 1
    12   11   12 1
    13   12   13 1
    14    8   14 ar
    15   14   15 ar
    16   15   16 ar
    17   16   20 ar
    18   15   17 ar
    19   17   18 ar
    20   18   19 ar
    21   19   20 ar
    22   17   21 1
    23   21   22 1
    24   22   27 ar
    25   22   23 ar
    26   23   24 ar
    27   24   25 ar
    28   25   26 ar
    29   26   27 ar
    30   26   28 1
    31   28   29 3
    32    1   30 1
    33    1   31 1
    34    1   32 1
    35    3   33 1
    36    3   34 1
    37    4   35 1
    38    4   36 1
    39    7   37 1
    40   10   38 1
    41   10   39 1
    42   11   40 1
    43   11   41 1
    44   13   42 1
    45   13   43 1
    46   13   44 1
    47   14   45 1
    48   19   46 1
    49   21   47 1
    50   23   48 1
    51   24   49 1
    52   25   50 1
    53   27   51 1
    54   29   52 1
@<TRIPOS>MOLECULE
Afatinib
   59    62     0     0     0
SMALL
USER_CHARGES

@<TRIPOS>ATOM
      1 C1         21.7419    6.0403   46.2002 C.3       1 <0>         0.1473
      2 N1         21.9832    4.8758   47.0513 N.3       1 <0>        -0.7180
      3 C2         21.2628    3.7106   46.5396 C.3       1 <0>         0.1473
      4 C3         21.5852    5.1581   48.4269 C.3       1 <0>         0.1720
      5 C4         22.2381    4.2166   49.3949 C.2       1 <0>        -0.0527
      6 C5         21.5499    3.3985   50.2039 C.2       1 <0>        -0.2607
      7 C6         22.2642    2.4929   51.1522 C.2       1 <0>         0.6712
      8 O1         23.4878    2.4744   51.2149 O.2       1 <0>        -0.6067
      9 N2         21.3633    1.7368   51.8906 N.am      1 <0>        -0.4623
     10 C7         21.6586    0.7860   52.8700 C.ar      1 <0>         0.0484
     11 C8         22.9860    0.5186   53.1900 C.ar      1 <0>        -0.1381
     12 C9         20.6429    0.1028   53.5294 C.ar      1 <0>         0.0702
     13 O2         19.3328    0.3434   53.2387 O.3       1 <0>        -0.3400
     14 C10        18.5642   -0.7561   52.7628 C.3       1 <0>         0.1044
     15 H1         19.2123   -1.6352   52.7196 H         1 <0>         0.0657
     16 C11        17.3347   -0.9357   53.6190 C.3       1 <0>        -0.1209
     17 C12        16.4053    0.1270   53.0675 C.3       1 <0>         0.1267
     18 O3         16.7307    0.2844   51.6798 O.3       1 <0>        -0.4176
     19 C13        17.9697   -0.3965   51.4168 C.3       1 <0>         0.1032
     20 C14        20.9564   -0.8463   54.5068 C.ar      1 <0>        -0.1641
     21 C15        22.2760   -1.1340   54.8468 C.ar      1 <0>         0.4221
     22 C16        23.2929   -0.4373   54.1740 C.ar      1 <0>        -0.2726
     23 N3         22.5583   -2.0503   55.7894 N.ar      1 <0>        -0.7108
     24 C17        23.8629   -2.2649   56.0546 C.ar      1 <0>         0.6641
     25 N4         24.9164   -1.6629   55.4796 N.ar      1 <0>        -0.7469
     26 C18        24.5985   -0.7518   54.5407 C.ar      1 <0>         0.6934
     27 N5         25.6780   -0.0901   53.9046 N.pl3     1 <0>        -0.7287
     28 C19        26.9934   -0.4863   53.6148 C.ar      1 <0>         0.1113
     29 C20        28.0138    0.4636   53.5674 C.ar      1 <0>        -0.0692
     30 C21        29.3208    0.0694   53.2812 C.ar      1 <0>        -0.0234
     31 Cl1        30.5753    1.2470   53.2209 Cl        1 <0>        -0.0621
     32 C22        29.6075   -1.2746   53.0424 C.ar      1 <0>         0.1385
     33 F1         30.8585   -1.6686   52.7642 F         1 <0>        -0.1233
     34 C23        28.5871   -2.2245   53.0897 C.ar      1 <0>        -0.1547
     35 C24        27.2800   -1.8303   53.3759 C.ar      1 <0>        -0.1197
     36 H2         22.2828    6.9075   46.5879 H         1 <0>         0.0362
     37 H3         20.6742    6.2745   46.1740 H         1 <0>         0.0362
     38 H4         22.0820    5.8403   45.1806 H         1 <0>         0.0362
     39 H5         21.4596    2.8640   47.1885 H         1 <0>         0.0362
     40 H6         21.6083    3.4960   45.5338 H         1 <0>         0.0362
     41 H7         20.2005    3.9301   46.5271 H         1 <0>         0.0362
     42 H8         21.8684    6.1854   48.6809 H         1 <0>         0.0435
     43 H9         20.4933    5.0962   48.4959 H         1 <0>         0.0435
     44 H10        23.3248    4.2357   49.4276 H         1 <0>         0.1647
     45 H11        20.4652    3.3812   50.1820 H         1 <0>         0.1356
     46 H12        20.3765    1.8932   51.6960 H         1 <0>         0.3313
     47 H13        23.7717    1.0599   52.6671 H         1 <0>         0.1745
     48 H14        16.9028   -1.9275   53.4425 H         1 <0>         0.0656
     49 H15        17.5059   -0.8088   54.6913 H         1 <0>         0.0656
     50 H16        15.3509   -0.1444   53.1703 H         1 <0>         0.0519
     51 H17        16.5657    1.0916   53.5608 H         1 <0>         0.0519
     52 H18        17.7271   -1.2951   50.8403 H         1 <0>         0.0634
     53 H19        18.6102    0.2566   50.8175 H         1 <0>         0.0634
     54 H20        20.1476   -1.3712   55.0130 H         1 <0>         0.1698
     55 H21        24.0836   -3.0043   56.8150 H         1 <0>         0.0546
     56 H22        25.4497    0.8501   53.6040 H         1 <0>         0.4370
     57 H23        27.7869    1.5110   53.7550 H         1 <0>         0.1708
     58 H24        28.8102   -3.2713   52.9062 H         1 <0>         0.1562
     59 H25        26.4927   -2.5790   53.4111 H         1 <0>         0.1462
@<TRIPOS>BOND
     1    1    2 1
     2    2    3 1
     3    2    4 1
     4    4    5 1
     5    5    6 2
     6    6    7 1
     7    7    8 2
     8    7    9 am
     9    9   10 1
    10   10   11 ar
    11   11   22 ar
    12   10   12 ar
    13   12   13 1
    14   13   14 1
    15   14   15 1
    16   14   19 1
    17   14   16 1
    18   16   17 1
    19   17   18 1
    20   18   19 1
    21   12   20 ar
    22   20   21 ar
    23   21   22 ar
    24   22   26 ar
    25   21   23 ar
    26   23   24 ar
    27   24   25 ar
    28   25   26 ar
    29   26   27 1
    30   27   28 1
    31   28   35 ar
    32   28   29 ar
    33   29   30 ar
    34   30   31 1
    35   30   32 ar
    36   32   33 1
    37   32   34 ar
    38   34   35 ar
    39    1   36 1
    40    1   37 1
    41    1   38 1
    42    3   39 1
    43    3   40 1
    44    3   41 1
    45    4   42 1
    46    4   43 1
    47    5   44 1
    48    6   45 1
    49    9   46 1
    50   11   47 1
    51   16   48 1
    52   16   49 1
    53   17   50 1
    54   17   51 1
    55   19   52 1
    56   19   53 1
    57   20   54 1
    58   24   55 1
    59   27   56 1
    60   29   57 1
    61   34   58 1
    62   35   59 1
@<TRIPOS>MOLECULE
Lapatinib
   66    70     0     0     0
SMALL
USER_CHARGES

@<TRIPOS>ATOM
      1 C1         18.0570    4.8985   48.3146 C.3       1 <0>        -0.3636
      2 S1         19.5882    4.5555   47.4832 S.o2      1 <0>         1.3325
      3 O1         19.9032    5.6954   46.6446 O.2       1 <0>        -0.6501
      4 O2         19.5019    3.2193   46.9271 O.2       1 <0>        -0.6501
      5 C2         20.7584    4.5166   48.8049 C.3       1 <0>        -0.3271
      6 C3         22.1671    4.2329   48.3196 C.3       1 <0>         0.1951
      7 N1         23.1292    4.2017   49.4128 N.3       1 <0>        -0.8219
      8 C4         24.4534    3.9314   48.9243 C.3       1 <0>         0.1353
      9 C5         25.3401    3.4335   49.9854 C.2       1 <0>         0.2532
     10 C6         26.6312    3.7354   50.3513 C.2       1 <0>        -0.2452
     11 C7         26.9270    2.9125   51.4642 C.2       1 <0>        -0.2410
     12 C8         25.7955    2.1666   51.6992 C.2       1 <0>         0.2953
     13 O3         24.8236    2.4781   50.8021 O.3       1 <0>        -0.3587
     14 C9         25.4435    1.1572   52.6673 C.ar      1 <0>        -0.1305
     15 C10        24.1810    0.5728   52.6442 C.ar      1 <0>        -0.0775
     16 C11        26.3650    0.7617   53.6304 C.ar      1 <0>        -0.0804
     17 C12        26.0224   -0.2168   54.5683 C.ar      1 <0>        -0.1797
     18 C13        24.7662   -0.8182   54.5685 C.ar      1 <0>         0.4388
     19 C14        23.8442   -0.4104   53.5907 C.ar      1 <0>        -0.2904
     20 N2         24.4545   -1.7575   55.4786 N.ar      1 <0>        -0.7061
     21 C15        23.2161   -2.2860   55.4045 C.ar      1 <0>         0.6678
     22 N3         22.2550   -1.9772   54.5191 N.ar      1 <0>        -0.7549
     23 C16        22.5999   -1.0337   53.6227 C.ar      1 <0>         0.7094
     24 N4         21.6170   -0.6743   52.6672 N.pl3     1 <0>        -0.7608
     25 C17        20.2140   -0.6555   52.7128 C.ar      1 <0>         0.1661
     26 C18        19.5488   -1.0465   53.8749 C.ar      1 <0>        -0.1401
     27 C19        18.1548   -1.0276   53.9204 C.ar      1 <0>        -0.1292
     28 C20        17.4260   -0.6180   52.8039 C.ar      1 <0>         0.0779
     29 C21        18.0912   -0.2271   51.6418 C.ar      1 <0>         0.0337
     30 Cl1        17.2147    0.2838   50.2465 Cl        1 <0>        -0.0671
     31 C22        19.4852   -0.2459   51.5963 C.ar      1 <0>        -0.1525
     32 O4         16.0649   -0.6081   52.8770 O.3       1 <0>        -0.3219
     33 C23        15.4762    0.2245   53.8736 C.3       1 <0>         0.1734
     34 C24        14.1376    0.6890   53.3861 C.ar      1 <0>        -0.0685
     35 C25        12.9958   -0.0637   53.6604 C.ar      1 <0>        -0.1200
     36 C26        11.7499    0.3681   53.2055 C.ar      1 <0>        -0.1096
     37 C27        11.6458    1.5526   52.4764 C.ar      1 <0>        -0.1559
     38 C28        12.7877    2.3054   52.2021 C.ar      1 <0>         0.1207
     39 F1         12.6884    3.4430   51.5018 F         1 <0>        -0.1410
     40 C29        14.0336    1.8735   52.6569 C.ar      1 <0>        -0.1414
     41 H1         17.8109    4.0455   48.9490 H         1 <0>         0.1182
     42 H2         18.1865    5.7986   48.9174 H         1 <0>         0.1182
     43 H3         17.2827    5.0507   47.5611 H         1 <0>         0.1182
     44 H4         20.7113    5.4991   49.2840 H         1 <0>         0.1161
     45 H5         20.4134    3.7600   49.5160 H         1 <0>         0.1161
     46 H6         22.2269    3.2719   47.7994 H         1 <0>         0.0531
     47 H7         22.4933    5.0186   47.6313 H         1 <0>         0.0531
     48 H8         23.1249    5.1032   49.8893 H         1 <0>         0.3657
     49 H9         24.8494    4.8573   48.4931 H         1 <0>         0.0583
     50 H10        24.3679    3.2040   48.1102 H         1 <0>         0.0583
     51 H11        27.2806    4.4574   49.8772 H         1 <0>         0.1666
     52 H12        27.8516    2.8725   52.0225 H         1 <0>         0.1609
     53 H13        23.4663    0.8885   51.8867 H         1 <0>         0.1383
     54 H14        27.3579    1.2038   53.6686 H         1 <0>         0.1533
     55 H15        26.7617   -0.5087   55.3118 H         1 <0>         0.1598
     56 H16        22.9714   -3.0422   56.1404 H         1 <0>         0.0570
     57 H17        22.0098   -0.3746   51.7828 H         1 <0>         0.4482
     58 H18        20.1070   -1.3661   54.7510 H         1 <0>         0.1479
     59 H19        17.6431   -1.3328   54.8293 H         1 <0>         0.1474
     60 H20        20.0084    0.0589   50.6924 H         1 <0>         0.1554
     61 H21        16.1435    1.0693   54.0636 H         1 <0>         0.0470
     62 H22        15.3788   -0.3486   54.7995 H         1 <0>         0.0470
     63 H23        13.0666   -0.9878   54.2281 H         1 <0>         0.1408
     64 H24        10.8605   -0.2177   53.4196 H         1 <0>         0.1391
     65 H25        10.6765    1.8893   52.1212 H         1 <0>         0.1491
     66 H26        14.9177    2.4665   52.4382 H         1 <0>         0.1525
@<TRIPOS>BOND
     1    1    2 1
     2    2    3 2
     3    2    4 2
     4    2    5 1
     5    5    6 1
     6    6    7 1
     7    7    8 1
     8    8    9 1
     9    9   13 1
    10    9   10 2
    11   10   11 1
    12   11   12 2
    13   12   13 1
    14   12   14 1
    15   14   15 ar
    16   15   19 ar
    17   14   16 ar
    18   16   17 ar
    19   17   18 ar
    20   18   19 ar
    21   19   23 ar
    22   18   20 ar
    23   20   21 ar
    24   21   22 ar
    25   22   23 ar
    26   23   24 1
    27   24   25 1
    28   25   31 ar
    29   25   26 ar
    30   26   27 ar
    31   27   28 ar
    32   28   29 ar
    33   29   30 1
    34   29   31 ar
    35   28   32 1
    36   32   33 1
    37   33   34 1
    38   34   40 ar
    39   34   35 ar
    40   35   36 ar
    41   36   37 ar
    42   37   38 ar
    43   38   39 1
    44   38   40 ar
    45    1   41 1
    46    1   42 1
    47    1   43 1
    48    5   44 1
    49    5   45 1
    50    6   46 1
    51    6   47 1
    52    7   48 1
    53    8   49 1
    54    8   50 1
    55   10   51 1
    56   11   52 1
    57   15   53 1
    58   16   54 1
    59   17   55 1
    60   21   56 1
    61   24   57 1
    62   26   58 1
    63   27   59 1
    64   31   60 1
    65   33   61 1
    66   33   62 1
    67   35   63 1
    68   36   64 1
    69   37   65 1
    70   40   66 1
@<TRIPOS>MOLECULE
Sorafenib
   48    50     0     0     0
SMALL
USER_CHARGES

@<TRIPOS>ATOM
      1 C1         13.1045   -3.8541   53.8161 C.3       1 <0>         0.0833
      2 N1         13.7032   -2.6072   53.3970 N.am      1 <0>        -0.5775
      3 C2         13.0053   -1.4100   53.4005 C.2       1 <0>         0.5643
      4 O1         11.8350   -1.2798   53.7499 O.2       1 <0>        -0.5663
      5 C3         13.7378   -0.2484   52.9263 C.ar      1 <0>         0.3916
      6 C4         14.7340   -0.3918   51.9739 C.ar      1 <0>        -0.2551
      7 C5         15.4034    0.7527   51.5552 C.ar      1 <0>         0.1458
      8 C6         15.0609    1.9880   52.0939 C.ar      1 <0>        -0.2950
      9 C7         14.0500    2.0248   53.0407 C.ar      1 <0>         0.4218
     10 N2         13.3772    0.9346   53.4723 N.ar      1 <0>        -0.6336
     11 O2         16.4014    0.6635   50.6102 O.3       1 <0>        -0.2400
     12 C8         17.6691    0.4662   51.0641 C.ar      1 <0>         0.0394
     13 C9         18.7230    1.2113   50.5349 C.ar      1 <0>        -0.0979
     14 C10        20.0225    1.0090   50.9996 C.ar      1 <0>        -0.1661
     15 C11        20.2682    0.0617   51.9935 C.ar      1 <0>         0.0898
     16 C12        19.2144   -0.6834   52.5227 C.ar      1 <0>        -0.1661
     17 C13        17.9148   -0.4812   52.0579 C.ar      1 <0>        -0.0979
     18 N3         21.5686   -0.1431   52.4558 N.am      1 <0>        -0.4787
     19 C14        22.7627    0.5011   52.0498 C.2       1 <0>         0.8008
     20 O3         22.8278    1.3748   51.1910 O.2       1 <0>        -0.6075
     21 N4         23.8524   -0.0083   52.7741 N.am      1 <0>        -0.4811
     22 C15        25.2142    0.3624   52.6743 C.ar      1 <0>         0.0878
     23 C16        25.6037    1.3480   51.7673 C.ar      1 <0>        -0.1218
     24 C17        26.9462    1.7134   51.6682 C.ar      1 <0>        -0.1070
     25 C18        27.8993    1.0932   52.4761 C.ar      1 <0>         0.0354
     26 Cl1        29.5507    1.5722   52.3257 Cl        1 <0>        -0.0559
     27 C19        27.5098    0.1075   53.3830 C.ar      1 <0>        -0.1263
     28 C20        26.1673   -0.2578   53.4821 C.ar      1 <0>        -0.1518
     29 C21        28.5002   -0.5805   54.2663 C.3       1 <0>         0.6917
     30 F1         29.7818   -0.1472   54.0876 F         1 <0>        -0.2322
     31 F2         28.2479   -0.4158   55.5971 F         1 <0>        -0.2322
     32 F3         28.5343   -1.9282   54.0611 F         1 <0>        -0.2322
     33 H1         12.6416   -4.3545   52.9616 H         1 <0>         0.0442
     34 H2         12.3378   -3.6694   54.5734 H         1 <0>         0.0442
     35 H3         13.8651   -4.5146   54.2411 H         1 <0>         0.0442
     36 H4         14.6701   -2.6085   53.0889 H         1 <0>         0.3124
     37 H5         14.9875   -1.3643   51.5639 H         1 <0>         0.1634
     38 H6         15.5657    2.8970   51.7861 H         1 <0>         0.1607
     39 H7         13.7446    2.9640   53.4900 H         1 <0>         0.0321
     40 H8         18.5376    1.9511   49.7611 H         1 <0>         0.1559
     41 H9         20.8365    1.5946   50.5797 H         1 <0>         0.1595
     42 H10        19.3945   -1.4246   53.2970 H         1 <0>         0.1595
     43 H11        17.0981   -1.0644   52.4746 H         1 <0>         0.1559
     44 H12        21.6737   -0.8548   53.1866 H         1 <0>         0.3172
     45 H13        23.6363   -0.7328   53.4541 H         1 <0>         0.3213
     46 H14        24.8697    1.8385   51.1329 H         1 <0>         0.1896
     47 H15        27.2337    2.4831   50.9567 H         1 <0>         0.1607
     48 H16        25.8640   -1.0263   54.1902 H         1 <0>         0.1498
@<TRIPOS>BOND
     1    1    2 1
     2    2    3 am
     3    3    4 2
     4    3    5 1
     5    5   10 ar
     6    5    6 ar
     7    6    7 ar
     8    7    8 ar
     9    8    9 ar
    10    9   10 ar
    11    7   11 1
    12   11   12 1
    13   12   17 ar
    14   12   13 ar
    15   13   14 ar
    16   14   15 ar
    17   15   16 ar
    18   16   17 ar
    19   15   18 1
    20   18   19 am
    21   19   20 2
    22   19   21 am
    23   21   22 1
    24   22   28 ar
    25   22   23 ar
    26   23   24 ar
    27   24   25 ar
    28   25   26 1
    29   25   27 ar
    30   27   28 ar
    31   27   29 1
    32   29   30 1
    33   29   31 1
    34   29   32 1
    35    1   33 1
    36    1   34 1
    37    1   35 1
    38    2   36 1
    39    6   37 1
    40    8   38 1
    41    9   39 1
    42   13   40 1
    43   14   41 1
    44   16   42 1
    45   17   43 1
    46   18   44 1
    47   21   45 1
    48   23   46 1
    49   24   47 1
    50   28   48 1
@<TRIPOS>MOLECULE
Sunitinib
   56    58     0     0     0
SMALL
USER_CHARGES

@<TRIPOS>ATOM
      1 C1         14.6270    2.7522   52.1978 C.3       1 <0>        -0.1127
      2 C2         14.2391    1.4689   51.5457 C.3       1 <0>         0.1568
      3 N1         14.9046    0.3320   52.1808 N.3       1 <0>        -0.7104
      4 C3         14.5408    0.2515   53.5949 C.3       1 <0>         0.1568
      5 C4         13.0757    0.0813   53.7381 C.3       1 <0>        -0.1127
      6 C5         16.3314    0.4388   52.0341 C.3       1 <0>         0.1474
      7 C6         17.0290   -0.8974   52.2253 C.3       1 <0>         0.0950
      8 N2         18.4623   -0.7860   52.0771 N.am      1 <0>        -0.5864
      9 C7         19.2316    0.0322   52.8891 C.2       1 <0>         0.7061
     10 O1         18.7933    0.7326   53.7979 O.2       1 <0>        -0.5968
     11 C8         20.6382    0.0552   52.6016 C.2       1 <0>        -0.2266
     12 C9         21.7090   -0.3050   53.4565 C.2       1 <0>        -0.0393
     13 C10        21.5930   -0.7883   54.8487 C.3       1 <0>        -0.0362
     14 C11        22.8779   -0.1216   52.7514 C.2       1 <0>        -0.1489
     15 N3         22.5475    0.3358   51.5025 N.pl3     1 <0>        -0.1440
     16 C12        21.1854    0.4476   51.4000 C.2       1 <0>        -0.0366
     17 C13        20.5549    0.9217   50.1523 C.3       1 <0>        -0.0474
     18 C14        24.2656   -0.3044   53.0534 C.2       1 <0>         0.0395
     19 C15        25.1805    0.6663   53.0229 C.2       1 <0>        -0.1389
     20 C16        24.8614    2.0886   52.6629 C.2       1 <0>         0.7039
     21 O2         23.7712    2.5371   52.3600 O.2       1 <0>        -0.5998
     22 N4         26.0899    2.7500   52.7589 N.am      1 <0>        -0.4789
     23 C17        26.6074    0.5793   53.3144 C.ar      1 <0>        -0.0868
     24 C18        27.1108    1.8716   53.1389 C.ar      1 <0>         0.0516
     25 C19        27.4403   -0.4572   53.6913 C.ar      1 <0>        -0.1069
     26 C20        28.7948   -0.1688   53.8895 C.ar      1 <0>         0.0909
     27 F1         29.6329   -1.1482   54.2561 F         1 <0>        -0.1400
     28 C21        29.2916    1.1361   53.7101 C.ar      1 <0>        -0.1273
     29 C22        28.4439    2.1781   53.3291 C.ar      1 <0>        -0.1447
     30 H1         14.1264    3.6008   51.7191 H         1 <0>         0.0387
     31 H2         14.3761    2.7396   53.2640 H         1 <0>         0.0387
     32 H3         15.7093    2.9030   52.1063 H         1 <0>         0.0387
     33 H4         14.5233    1.4745   50.4891 H         1 <0>         0.0438
     34 H5         13.1597    1.3069   51.6195 H         1 <0>         0.0438
     35 H6         15.0841   -0.5954   54.0052 H         1 <0>         0.0438
     36 H7         14.8884    1.1722   54.0550 H         1 <0>         0.0438
     37 H8         12.7828    0.0188   54.7917 H         1 <0>         0.0387
     38 H9         12.5307    0.9025   53.2599 H         1 <0>         0.0387
     39 H10        12.7776   -0.8535   53.2485 H         1 <0>         0.0387
     40 H11        16.5279    0.8533   51.0402 H         1 <0>         0.0318
     41 H12        16.6787    1.1550   52.7852 H         1 <0>         0.0318
     42 H13        16.8391   -1.2834   53.2315 H         1 <0>         0.0571
     43 H14        16.6796   -1.6374   51.4980 H         1 <0>         0.0571
     44 H15        18.9223   -1.3266   51.3519 H         1 <0>         0.3094
     45 H16        21.5082   -1.8861   54.8800 H         1 <0>         0.0521
     46 H17        22.4653   -0.5002   55.4585 H         1 <0>         0.0521
     47 H18        20.7103   -0.3674   55.3583 H         1 <0>         0.0521
     48 H19        23.2038    0.5586   50.7657 H         1 <0>         0.3019
     49 H20        20.3313    0.0807   49.4758 H         1 <0>         0.0583
     50 H21        19.6098    1.4579   50.3442 H         1 <0>         0.0583
     51 H22        21.2011    1.6295   49.6053 H         1 <0>         0.0583
     52 H23        24.5974   -1.2958   53.3551 H         1 <0>         0.1483
     53 H24        26.2377    3.7361   52.5797 H         1 <0>         0.3443
     54 H25        27.0690   -1.4663   53.8313 H         1 <0>         0.1535
     55 H26        30.3485    1.3322   53.8701 H         1 <0>         0.1522
     56 H27        28.8249    3.1835   53.1915 H         1 <0>         0.1470
@<TRIPOS>BOND
     1    1    2 1
     2    2    3 1
     3    3    4 1
     4    4    5 1
     5    3    6 1
     6    6    7 1
     7    7    8 1
     8    8    9 am
     9    9   10 2
    10    9   11 1
    11   11   16 2
    12   11   12 1
    13   12   13 1
    14   12   14 2
    15   14   15 1
    16   15   16 1
    17   16   17 1
    18   14   18 1
    19   18   19 2
    20   19   20 1
    21   20   21 2
    22   20   22 am
    23   22   24 1
    24   19   23 1
    25   23   24 ar
    26   24   29 ar
    27   23   25 ar
    28   25   26 ar
    29   26   27 1
    30   26   28 ar
    31   28   29 ar
    32    1   30 1
    33    1   31 1
    34    1   32 1
    35    2   33 1
    36    2   34 1
    37    4   35 1
    38    4   36 1
    39    5   37 1
    40    5   38 1
    41    5   39 1
    42    6   40 1
    43    6   41 1
    44    7   42 1
    45    7   43 1
    46    8   44 1
    47   13   45 1
    48   13   46 1
    49   13   47 1
    50   15   48 1
    51   17   49 1
    52   17   50 1
    53   17   51 1
    54   18   52 1
    55   22   53 1
    56   25   54 1
    57   28   55 1
    58   29   56 1
@<TRIPOS>MOLECULE
Pazopanib
   54    57     0     0     0
SMALL
USER_CHARGES

@<TRIPOS>ATOM
      1 C1         17.2969    0.1504   49.7035 C.3       1 <0>        -0.0840
      2 C2         18.0707   -0.2193   50.9265 C.ar      1 <0>         0.0260
      3 C3         19.1990    0.5019   51.3169 C.ar      1 <0>        -0.3576
      4 S1         19.7619    1.8759   50.3905 S.o2      1 <0>         1.5264
      5 O1         20.2086    1.3969   49.0913 O.2       1 <0>        -0.6608
      6 O2         18.7580    2.9259   50.4717 O.2       1 <0>        -0.6608
      7 N1         21.1248    2.3448   51.3067 N.pl3     1 <0>        -1.0259
      8 C4         19.9007    0.1321   52.4643 C.ar      1 <0>        -0.0849
      9 C5         19.4740   -0.9591   53.2213 C.ar      1 <0>         0.1409
     10 C6         18.3456   -1.6803   52.8309 C.ar      1 <0>        -0.0686
     11 C7         17.6440   -1.3104   51.6835 C.ar      1 <0>        -0.1447
     12 N2         20.1825   -1.3331   54.3806 N.pl3     1 <0>        -0.7377
     13 C8         21.5418   -1.2272   54.7470 C.ar      1 <0>         0.9115
     14 N3         21.8759   -1.7017   55.9621 N.ar      1 <0>        -0.7692
     15 C9         23.1822   -1.5858   56.2791 C.ar      1 <0>         0.4759
     16 C10        24.1276   -1.0282   55.4426 C.ar      1 <0>        -0.4484
     17 C11        23.6573   -0.5796   54.2253 C.ar      1 <0>         0.7261
     18 N4         22.3661   -0.6638   53.8433 N.ar      1 <0>        -0.8110
     19 N5         24.5982   -0.0015   53.3351 N.pl3     1 <0>        -0.6665
     20 C12        24.0547    1.0287   52.4412 C.3       1 <0>         0.2076
     21 C13        26.0107   -0.1459   53.3947 C.ar      1 <0>         0.1409
     22 C14        26.8016    1.0357   53.5529 C.ar      1 <0>        -0.1609
     23 C15        28.2086    1.0360   53.6255 C.ar      1 <0>        -0.0505
     24 C16        26.5531   -1.4459   53.2933 C.ar      1 <0>        -0.2192
     25 C17        27.9581   -1.4759   53.3627 C.ar      1 <0>         0.3735
     26 C18        28.7111   -0.2550   53.5230 C.ar      1 <0>        -0.2208
     27 N6         28.8113   -2.5137   53.3036 N.2       1 <0>        -0.5274
     28 N7         30.0329   -1.9583   53.4223 N.pl3     1 <0>         0.1508
     29 C19        31.1943   -2.8181   53.3947 C.3       1 <0>         0.0267
     30 C20        30.0323   -0.6006   53.5570 C.2       1 <0>        -0.1001
     31 C21        31.2694    0.1906   53.6987 C.3       1 <0>        -0.0310
     32 H1         16.5098    0.8659   49.9604 H         1 <0>         0.0609
     33 H2         17.9505    0.5991   48.9481 H         1 <0>         0.0609
     34 H3         16.8372   -0.7339   49.2496 H         1 <0>         0.0609
     35 H4         22.0556    2.1703   50.9084 H         1 <0>         0.4465
     36 H5         21.0627    3.2132   51.8518 H         1 <0>         0.4465
     37 H6         20.7807    0.6935   52.7700 H         1 <0>         0.1597
     38 H7         18.0044   -2.5322   53.4135 H         1 <0>         0.1645
     39 H8         16.7661   -1.8790   51.3880 H         1 <0>         0.1406
     40 H9         19.6003   -1.7648   55.0929 H         1 <0>         0.4574
     41 H10        23.4569   -1.9676   57.2568 H         1 <0>         0.0260
     42 H11        25.1677   -0.9554   55.7350 H         1 <0>         0.1646
     43 H12        24.1448    1.9911   52.9293 H         1 <0>         0.0486
     44 H13        23.0140    0.8030   52.2440 H         1 <0>         0.0486
     45 H14        24.6211    1.0209   51.5181 H         1 <0>         0.0486
     46 H15        26.2918    1.9975   53.6233 H         1 <0>         0.1410
     47 H16        28.7912    1.9384   53.7468 H         1 <0>         0.1341
     48 H17        25.9446   -2.3332   53.1721 H         1 <0>         0.1538
     49 H18        31.5218   -2.9170   52.3550 H         1 <0>         0.0652
     50 H19        31.9922   -2.3796   54.0032 H         1 <0>         0.0652
     51 H20        30.9332   -3.7990   53.8058 H         1 <0>         0.0652
     52 H21        31.6554    0.5055   52.7150 H         1 <0>         0.0550
     53 H22        31.1127    1.1005   54.3034 H         1 <0>         0.0550
     54 H23        32.0689   -0.3772   54.2055 H         1 <0>         0.0550
@<TRIPOS>BOND
     1    1    2 1
     2    2   11 ar
     3    2    3 ar
     4    3    4 1
     5    4    5 2
     6    4    6 2
     7    4    7 1
     8    3    8 ar
     9    8    9 ar
    10    9   10 ar
    11   10   11 ar
    12    9   12 1
    13   12   13 1
    14   13   18 ar
    15   13   14 ar
    16   14   15 ar
    17   15   16 ar
    18   16   17 ar
    19   17   18 ar
    20   17   19 1
    21   19   20 1
    22   19   21 1
    23   21   22 ar
    24   22   23 ar
    25   23   26 ar
    26   21   24 ar
    27   24   25 ar
    28   25   26 ar
    29   26   30 2
    30   25   27 2
    31   27   28 1
    32   28   29 1
    33   28   30 1
    34   30   31 1
    35    1   32 1
    36    1   33 1
    37    1   34 1
    38    7   35 1
    39    7   36 1
    40    8   37 1
    41   10   38 1
    42   11   39 1
    43   12   40 1
    44   15   41 1
    45   16   42 1
    46   20   43 1
    47   20   44 1
    48   20   45 1
    49   22   46 1
    50   23   47 1
    51   24   48 1
    52   29   49 1
    53   29   50 1
    54   29   51 1
    55   31   52 1
    56   31   53 1
    57   31   54 1
@<TRIPOS>MOLECULE
Vandetanib
   54    57     0     0     0
SMALL
USER_CHARGES

@<TRIPOS>ATOM
      1 C1         13.7788    1.7291   52.9080 C.3       1 <0>         0.1518
      2 N1         15.1741    1.3630   52.6657 N.3       1 <0>        -0.7201
      3 C2         15.5444    0.1891   53.4676 C.3       1 <0>         0.1633
      4 C3         17.0170   -0.1742   53.2664 C.3       1 <0>        -0.0740
      5 C4         17.3350   -0.4124   51.7864 C.3       1 <0>        -0.0736
      6 C5         16.8684    0.7886   50.9568 C.3       1 <0>        -0.0740
      7 C6         15.4008    1.1206   51.2347 C.3       1 <0>         0.1633
      8 C7         18.8240   -0.6761   51.5806 C.3       1 <0>         0.1343
      9 O1         19.5479    0.4523   52.0354 O.3       1 <0>        -0.3395
     10 C8         20.8090    0.2267   52.5297 C.ar      1 <0>         0.1218
     11 C9         21.9169    0.8255   51.9404 C.ar      1 <0>         0.0738
     12 C10        23.1852    0.5826   52.4584 C.ar      1 <0>        -0.1103
     13 O2         21.7740    1.6460   50.8635 O.3       1 <0>        -0.3360
     14 C11        21.8317    1.0397   49.5734 C.3       1 <0>         0.1165
     15 C12        20.9714   -0.6136   53.6351 C.ar      1 <0>        -0.2048
     16 C13        22.2289   -0.8743   54.1740 C.ar      1 <0>         0.4448
     17 C14        23.3401   -0.2636   53.5701 C.ar      1 <0>        -0.2927
     18 N2         22.3657   -1.6855   55.2375 N.ar      1 <0>        -0.7105
     19 C15        23.6197   -1.8816   55.6929 C.ar      1 <0>         0.6732
     20 N3         24.7523   -1.3547   55.2003 N.ar      1 <0>        -0.7447
     21 C16        24.5796   -0.5480   54.1363 C.ar      1 <0>         0.6967
     22 N4         25.7472    0.0322   53.5809 N.pl3     1 <0>        -0.7180
     23 C17        27.0796   -0.4041   53.5097 C.ar      1 <0>         0.0983
     24 C18        27.3621   -1.7689   53.4540 C.ar      1 <0>        -0.1419
     25 C19        28.6852   -2.2050   53.3831 C.ar      1 <0>        -0.1080
     26 C20        29.7258   -1.2762   53.3680 C.ar      1 <0>        -0.0085
     27 Br1        31.5184   -1.8669   53.2720 Br        1 <0>        -0.0707
     28 C21        29.4432    0.0886   53.4237 C.ar      1 <0>        -0.1389
     29 C22        28.1202    0.5247   53.4946 C.ar      1 <0>         0.1605
     30 F1         27.8600    1.8388   53.5480 F         1 <0>        -0.1104
     31 H1         13.6170    1.9080   53.9742 H         1 <0>         0.0319
     32 H2         13.1147    0.9242   52.5815 H         1 <0>         0.0319
     33 H3         13.5252    2.6382   52.3562 H         1 <0>         0.0319
     34 H4         15.3889    0.4030   54.5321 H         1 <0>         0.0318
     35 H5         14.9141   -0.6734   53.2134 H         1 <0>         0.0318
     36 H6         17.6478    0.6334   53.6608 H         1 <0>         0.0514
     37 H7         17.2520   -1.0733   53.8486 H         1 <0>         0.0514
     38 H8         16.7831   -1.3010   51.4515 H         1 <0>         0.0674
     39 H9         17.4888    1.6657   51.1841 H         1 <0>         0.0514
     40 H10        16.9970    0.5774   49.8885 H         1 <0>         0.0514
     41 H11        15.1403    2.0181   50.6605 H         1 <0>         0.0318
     42 H12        14.7633    0.3043   50.8700 H         1 <0>         0.0318
     43 H13        19.0303   -0.8345   50.5223 H         1 <0>         0.0475
     44 H14        19.1283   -1.5537   52.1506 H         1 <0>         0.0475
     45 H15        24.0402    1.0594   51.9850 H         1 <0>         0.1395
     46 H16        21.7033    1.8099   48.8140 H         1 <0>         0.0443
     47 H17        21.0436    0.2916   49.4978 H         1 <0>         0.0443
     48 H18        22.8053    0.5653   49.4588 H         1 <0>         0.0443
     49 H19        20.0918   -1.0735   54.0830 H         1 <0>         0.1680
     50 H20        23.7230   -2.5361   56.5498 H         1 <0>         0.0578
     51 H21        25.5808    0.9363   53.1554 H         1 <0>         0.4266
     52 H22        26.5589   -2.5013   53.4652 H         1 <0>         0.1418
     53 H23        28.8882   -3.2720   53.3403 H         1 <0>         0.1537
     54 H24        30.2421    0.8255   53.4130 H         1 <0>         0.1666
@<TRIPOS>BOND
     1    1    2 1
     2    2    7 1
     3    2    3 1
     4    3    4 1
     5    4    5 1
     6    5    6 1
     7    6    7 1
     8    5    8 1
     9    8    9 1
    10    9   10 1
    11   10   11 ar
    12   11   12 ar
    13   12   17 ar
    14   11   13 1
    15   13   14 1
    16   10   15 ar
    17   15   16 ar
    18   16   17 ar
    19   17   21 ar
    20   16   18 ar
    21   18   19 ar
    22   19   20 ar
    23   20   21 ar
    24   21   22 1
    25   22   23 1
    26   23   29 ar
    27   23   24 ar
    28   24   25 ar
    29   25   26 ar
    30   26   27 1
    31   26   28 ar
    32   28   29 ar
    33   29   30 1
    34    1   31 1
    35    1   32 1
    36    1   33 1
    37    3   34 1
    38    3   35 1
    39    4   36 1
    40    4   37 1
    41    5   38 1
    42    6   39 1
    43    6   40 1
    44    7   41 1
    45    7   42 1
    46    8   43 1
    47    8   44 1
    48   12   45 1
    49   14   46 1
    50   14   47 1
    51   14   48 1
    52   15   49 1
    53   19   50 1
    54   22   51 1
    55   24   52 1
    56   25   53 1
    57   28   54 1
@<TRIPOS>MOLECULE
Axitinib
   46    49     0     0     0
SMALL
USER_CHARGES

@<TRIPOS>ATOM
      1 C1         29.3681    4.0775   52.7141 C.3       1 <0>         0.0802
      2 N1         29.1641    2.6508   52.6069 N.am      1 <0>        -0.5743
      3 C2         28.9171    1.8508   53.7112 C.2       1 <0>         0.6672
      4 O1         28.8462    2.2538   54.8692 O.2       1 <0>        -0.5831
      5 C3         28.7588    0.4260   53.4416 C.ar      1 <0>        -0.1330
      6 C4         29.6501   -0.4526   54.0577 C.ar      1 <0>        -0.0940
      7 C5         29.5424   -1.8253   53.8351 C.ar      1 <0>        -0.1466
      8 C6         28.5435   -2.3196   52.9963 C.ar      1 <0>        -0.0971
      9 C7         27.6523   -1.4410   52.3802 C.ar      1 <0>        -0.1575
     10 C8         27.7600   -0.0683   52.6028 C.ar      1 <0>         0.0289
     11 S1         26.5938    1.0111   51.7871 S.3       1 <0>        -0.0865
     12 C9         25.0465    0.4075   52.4446 C.ar      1 <0>        -0.0351
     13 C10        25.0191   -0.1493   53.7275 C.ar      1 <0>        -0.0801
     14 C11        23.8876    0.4992   51.6714 C.ar      1 <0>        -0.1082
     15 C12        22.6587    0.0353   52.1575 C.ar      1 <0>        -0.0796
     16 C13        22.6151   -0.5265   53.4444 C.ar      1 <0>        -0.1736
     17 C14        23.7840   -0.6055   54.1932 C.ar      1 <0>         0.0549
     18 C15        21.6262   -1.0903   54.2790 C.2       1 <0>         0.3778
     19 N2         22.1101   -1.4950   55.4555 N.2       1 <0>        -0.3949
     20 N3         23.4159   -1.1894   55.3752 N.pl3     1 <0>        -0.3864
     21 C16        20.2584   -1.2214   53.9228 C.2       1 <0>        -0.1777
     22 C17        19.5514   -0.3945   53.0827 C.2       1 <0>        -0.1979
     23 C18        18.1366   -0.5421   52.6980 C.ar      1 <0>         0.4457
     24 C19        17.5636   -1.8022   52.6384 C.ar      1 <0>        -0.2368
     25 C20        16.2255   -1.8918   52.2711 C.ar      1 <0>        -0.0928
     26 C21        15.5116   -0.7350   51.9791 C.ar      1 <0>        -0.2453
     27 C22        16.1764    0.4774   52.0685 C.ar      1 <0>         0.3985
     28 N4         17.4751    0.6041   52.4216 N.ar      1 <0>        -0.6565
     29 H1         30.4297    4.2956   52.8569 H         1 <0>         0.0431
     30 H2         28.8094    4.4763   53.5652 H         1 <0>         0.0431
     31 H3         29.0253    4.5778   51.8044 H         1 <0>         0.0431
     32 H4         29.2032    2.2190   51.6894 H         1 <0>         0.3101
     33 H5         30.4335   -0.0806   54.7134 H         1 <0>         0.1410
     34 H6         30.2368   -2.5095   54.3144 H         1 <0>         0.1375
     35 H7         28.4597   -3.3883   52.8235 H         1 <0>         0.1362
     36 H8         26.8813   -1.8476   51.7301 H         1 <0>         0.1466
     37 H9         25.9095   -0.2288   54.3428 H         1 <0>         0.1523
     38 H10        23.9180    0.9338   50.6743 H         1 <0>         0.1543
     39 H11        21.7662    0.1135   51.5439 H         1 <0>         0.1447
     40 H12        24.0071   -1.4070   56.1677 H         1 <0>         0.4867
     41 H13        19.7009   -2.0907   54.3333 H         1 <0>         0.1330
     42 H14        20.0698    0.4413   52.6190 H         1 <0>         0.1618
     43 H15        18.1272   -2.7009   52.8679 H         1 <0>         0.1439
     44 H16        15.7392   -2.8610   52.2136 H         1 <0>         0.1387
     45 H17        14.4679   -0.7814   51.6902 H         1 <0>         0.1440
     46 H18        15.6650    1.4089   51.8495 H         1 <0>         0.0235
@<TRIPOS>BOND
     1    1    2 1
     2    2    3 am
     3    3    4 2
     4    3    5 1
     5    5   10 ar
     6    5    6 ar
     7    6    7 ar
     8    7    8 ar
     9    8    9 ar
    10    9   10 ar
    11   10   11 1
    12   11   12 1
    13   12   13 ar
    14   13   17 ar
    15   12   14 ar
    16   14   15 ar
    17   15   16 ar
    18   16   17 ar
    19   17   20 1
    20   16   18 1
    21   18   19 2
    22   19   20 1
    23   18   21 1
    24   21   22 2
    25   22   23 1
    26   23   28 ar
    27   23   24 ar
    28   24   25 ar
    29   25   26 ar
    30   26   27 ar
    31   27   28 ar
    32    1   29 1
    33    1   30 1
    34    1   31 1
    35    2   32 1
    36    6   33 1
    37    7   34 1
    38    8   35 1
    39    9   36 1
    40   13   37 1
    41   14   38 1
    42   15   39 1
    43   20   40 1
    44   21   41 1
    45   22   42 1
    46   24   43 1
    47   25   44 1
    48   26   45 1
    49   27   46 1
@<TRIPOS>MOLECULE
Regorafenib
   48    50     0     0     0
SMALL
USER_CHARGES

@<TRIPOS>ATOM
      1 C1         12.0727    1.1904   54.9807 C.3       1 <0>         0.0766
      2 N1         13.2885    0.8062   54.3002 N.am      1 <0>        -0.5715
      3 C2         13.3258   -0.2187   53.3682 C.2       1 <0>         0.5632
      4 O1         12.3583   -0.8942   53.0274 O.2       1 <0>        -0.5614
      5 C3         14.6283   -0.5023   52.7905 C.ar      1 <0>         0.3889
      6 N2         14.8373   -1.7849   52.4179 N.ar      1 <0>        -0.6317
      7 C4         16.0452   -2.0642   51.8789 C.ar      1 <0>         0.4218
      8 C5         17.0485   -1.1264   51.6956 C.ar      1 <0>        -0.2940
      9 C6         16.7960    0.1824   52.0914 C.ar      1 <0>         0.1435
     10 C7         15.5653    0.5087   52.6501 C.ar      1 <0>        -0.2493
     11 O2         17.7611    1.1518   51.9302 O.3       1 <0>        -0.2401
     12 C8         19.0314    0.8291   52.2976 C.ar      1 <0>         0.0729
     13 C9         19.2636    0.1704   53.5051 C.ar      1 <0>        -0.1437
     14 C10        20.5658   -0.1605   53.8799 C.ar      1 <0>         0.1124
     15 F1         20.7765   -0.7951   55.0419 F         1 <0>        -0.1181
     16 C11        21.6358    0.1674   53.0473 C.ar      1 <0>         0.0484
     17 C12        21.4036    0.8262   51.8399 C.ar      1 <0>        -0.1452
     18 C13        20.1014    1.1570   51.4651 C.ar      1 <0>        -0.1153
     19 N3         22.9392   -0.1624   53.4201 N.am      1 <0>        -0.4792
     20 C14        24.1457    0.5082   53.1030 C.2       1 <0>         0.7943
     21 O3         24.2211    1.5255   52.4214 O.2       1 <0>        -0.5889
     22 N4         25.2341   -0.1631   53.6830 N.am      1 <0>        -0.4792
     23 C15        26.6058    0.1759   53.6098 C.ar      1 <0>         0.0822
     24 C16        27.5762   -0.8244   53.6675 C.ar      1 <0>        -0.1461
     25 C17        28.9284   -0.4894   53.5960 C.ar      1 <0>        -0.1312
     26 C18        29.9371   -1.5905   53.6604 C.3       1 <0>         0.6924
     27 F2         29.3817   -2.8307   53.7859 F         1 <0>        -0.2316
     28 F3         30.7329   -1.6639   52.5543 F         1 <0>        -0.2316
     29 F4         30.7871   -1.4582   54.7185 F         1 <0>        -0.2316
     30 C19        29.3101    0.8460   53.4668 C.ar      1 <0>         0.0316
     31 Cl1        30.9732    1.2979   53.3726 Cl        1 <0>        -0.0561
     32 C20        28.3396    1.8463   53.4092 C.ar      1 <0>        -0.1042
     33 C21        26.9875    1.5113   53.4807 C.ar      1 <0>        -0.1183
     34 H1         11.9627    0.6178   55.9054 H         1 <0>         0.0455
     35 H2         11.2057    0.9985   54.3428 H         1 <0>         0.0455
     36 H3         12.0978    2.2553   55.2271 H         1 <0>         0.0455
     37 H4         14.1462    1.3052   54.5126 H         1 <0>         0.3088
     38 H5         16.1918   -3.0987   51.5862 H         1 <0>         0.0332
     39 H6         17.9988   -1.4094   51.2567 H         1 <0>         0.1588
     40 H7         15.3510    1.5250   52.9655 H         1 <0>         0.1670
     41 H8         18.4342   -0.0880   54.1579 H         1 <0>         0.1719
     42 H9         22.2295    1.0860   51.1825 H         1 <0>         0.1589
     43 H10        19.9273    1.6688   50.5225 H         1 <0>         0.1606
     44 H11        23.0365   -1.0019   54.0009 H         1 <0>         0.3214
     45 H12        25.0087   -0.9955   54.2220 H         1 <0>         0.3212
     46 H13        27.2791   -1.8662   53.7677 H         1 <0>         0.1545
     47 H14        28.6194    2.8920   53.3087 H         1 <0>         0.1606
     48 H15        26.2401    2.2994   53.4339 H         1 <0>         0.1869
@<TRIPOS>BOND
     1    1    2 1
     2    2    3 am
     3    3    4 2
     4    3    5 1
     5    5   10 ar
     6    5    6 ar
     7    6    7 ar
     8    7    8 ar
     9    8    9 ar
    10    9   10 ar
    11    9   11 1
    12   11   12 1
    13   12   18 ar
    14   12   13 ar
    15   13   14 ar
    16   14   15 1
    17   14   16 ar
    18   16   17 ar
    19   17   18 ar
    20   16   19 1
    21   19   20 am
    22   20   21 2
    23   20   22 am
    24   22   23 1
    25   23   33 ar
    26   23   24 ar
    27   24   25 ar
    28   25   26 1
    29   26   27 1
    30   26   28 1
    31   26   29 1
    32   25   30 ar
    33   30   31 1
    34   30   32 ar
    35   32   33 ar
    36    1   34 1
    37    1   35 1
    38    1   36 1
    39    2   37 1
    40    7   38 1
    41    8   39 1
    42   10   40 1
    43   13   41 1
    44   17   42 1
    45   18   43 1
    46   19   44 1
    47   22   45 1
    48   24   46 1
    49   32   47 1
    50   33   48 1
@<TRIPOS>MOLECULE
Crizotinib
   52    55     0     0     0
SMALL
USER_CHARGES

@<TRIPOS>ATOM
      1 Cl1        27.2729   -2.2975   54.2677 Cl        1 <0>        -0.0613
      2 C1         27.8232   -0.7228   53.8173 C.ar      1 <0>        -0.0041
      3 C2         29.1774   -0.4204   53.9596 C.ar      1 <0>         0.1309
      4 F1         30.0380   -1.3316   54.4362 F         1 <0>        -0.1221
      5 C3         29.6511    0.8425   53.6042 C.ar      1 <0>        -0.1460
      6 C4         28.7706    1.8031   53.1065 C.ar      1 <0>        -0.1074
      7 C5         27.4163    1.5006   52.9642 C.ar      1 <0>         0.0311
      8 Cl2        26.3626    2.7195   52.3424 Cl        1 <0>        -0.0623
      9 C6         26.9426    0.2377   53.3196 C.ar      1 <0>        -0.0415
     10 C7         25.4762   -0.0882   53.1659 C.3       1 <0>         0.1868
     11 H1         24.9224    0.7687   52.7643 H         1 <0>         0.0632
     12 C8         25.2400   -1.2917   52.2641 C.3       1 <0>        -0.1298
     13 O1         24.9419   -0.3688   54.4544 O.3       1 <0>        -0.3278
     14 C9         23.6223   -0.6858   54.5134 C.ar      1 <0>        -0.0470
     15 C10        23.1078   -1.5297   55.4845 C.ar      1 <0>         0.6169
     16 N1         24.0066   -2.0700   56.4383 N.pl3     1 <0>        -0.9132
     17 N2         21.8028   -1.8701   55.5772 N.ar      1 <0>        -0.7067
     18 C11        20.9761   -1.3369   54.6499 C.ar      1 <0>         0.4163
     19 C12        21.3906   -0.4838   53.6398 C.ar      1 <0>        -0.1274
     20 C13        22.7406   -0.1571   53.5772 C.ar      1 <0>        -0.1166
     21 C14        20.4592    0.0445   52.6918 C.2       1 <0>        -0.2062
     22 C15        20.8001    0.3750   51.3665 C.2       1 <0>        -0.1323
     23 N3         19.7637    0.8499   50.6706 N.pl3     1 <0>         0.0915
     24 N4         18.7583    0.8199   51.5619 N.2       1 <0>        -0.5096
     25 C16        19.1226    0.3459   52.7878 C.2       1 <0>         0.3061
     26 C17        19.6182    1.3230   49.2901 C.3       1 <0>         0.0672
     27 C18        19.0150    2.7340   49.2066 C.3       1 <0>        -0.0928
     28 C19        18.9028    3.1945   47.7534 C.3       1 <0>         0.1658
     29 N5         20.1948    3.1321   47.0689 N.3       1 <0>        -0.8290
     30 C20        20.7399    1.7739   47.0732 C.3       1 <0>         0.1658
     31 C21        20.9325    1.2517   48.4968 C.3       1 <0>        -0.0928
     32 H2         30.7055    1.0774   53.7151 H         1 <0>         0.1605
     33 H3         29.1563    2.7824   52.8338 H         1 <0>         0.1579
     34 H4         24.1727   -1.5135   52.1640 H         1 <0>         0.0580
     35 H5         25.7450   -2.1869   52.6442 H         1 <0>         0.0580
     36 H6         25.6524   -1.1040   51.2667 H         1 <0>         0.0580
     37 H7         23.6445   -2.6405   57.1707 H         1 <0>         0.4095
     38 H8         24.9628   -1.7909   56.4094 H         1 <0>         0.4095
     39 H9         19.9355   -1.6309   54.7541 H         1 <0>         0.0202
     40 H10        23.1141    0.5087   52.8022 H         1 <0>         0.1455
     41 H11        21.7690    0.2834   50.8909 H         1 <0>         0.1797
     42 H12        18.3984    0.2772   53.5849 H         1 <0>         0.0427
     43 H13        18.8917    0.6029   48.8320 H         1 <0>         0.0783
     44 H14        18.0241    2.7481   49.6769 H         1 <0>         0.0624
     45 H15        19.6380    3.4423   49.7697 H         1 <0>         0.0624
     46 H16        18.1633    2.5857   47.2189 H         1 <0>         0.0339
     47 H17        18.5415    4.2286   47.7328 H         1 <0>         0.0339
     48 H18        20.0784    3.4438   46.1050 H         1 <0>         0.3710
     49 H19        20.0824    1.1018   46.5083 H         1 <0>         0.0339
     50 H20        21.7077    1.7794   46.5601 H         1 <0>         0.0339
     51 H21        21.2978    0.2179   48.4651 H         1 <0>         0.0624
     52 H22        21.7090    1.8413   49.0026 H         1 <0>         0.0624
@<TRIPOS>BOND
     1    1    2 1
     2    2    9 ar
     3    2    3 ar
     4    3    4 1
     5    3    5 ar
     6    5    6 ar
     7    6    7 ar
     8    7    8 1
     9    7    9 ar
    10    9   10 1
    11   10   11 1
    12   10   12 1
    13   10   13 1
    14   13   14 1
    15   14   20 ar
    16   14   15 ar
    17   15   16 1
    18   15   17 ar
    19   17   18 ar
    20   18   19 ar
    21   19   20 ar
    22   19   21 1
    23   21   25 1
    24   21   22 2
    25   22   23 1
    26   23   24 1
    27   24   25 2
    28   23   26 1
    29   26   31 1
    30   26   27 1
    31   27   28 1
    32   28   29 1
    33   29   30 1
    34   30   31 1
    35    5   32 1
    36    6   33 1
    37   12   34 1
    38   12   35 1
    39   12   36 1
    40   16   37 1
    41   16   38 1
    42   18   39 1
    43   20   40 1
    44   22   41 1
    45   25   42 1
    46   26   43 1
    47   27   44 1
    48   27   45 1
    49   28   46 1
    50   28   47 1
    51   29   48 1
    52   30   49 1
    53   30   50 1
    54   31   51 1
    55   31   52 1
@<TRIPOS>MOLECULE
Ceritinib
   74    77     0     0     0
SMALL
USER_CHARGES

@<TRIPOS>ATOM
      1 C1         19.6330    3.0373   49.4526 C.3       1 <0>        -0.1114
      2 C2         19.0517    3.6501   48.1781 C.3       1 <0>         0.1451
      3 N1         17.6816    3.1944   47.9408 N.3       1 <0>        -0.7913
      4 C3         17.6148    1.7380   47.8176 C.3       1 <0>         0.1451
      5 C4         18.1360    1.0447   49.0767 C.3       1 <0>        -0.1114
      6 C5         19.5656    1.5024   49.4067 C.3       1 <0>        -0.0154
      7 C6         20.0943    0.8647   50.6812 C.ar      1 <0>        -0.0709
      8 C7         19.1948    0.5241   51.6915 C.ar      1 <0>        -0.1403
      9 C8         19.6581   -0.0624   52.8693 C.ar      1 <0>         0.0593
     10 O1         18.7632   -0.3876   53.8446 O.3       1 <0>        -0.3548
     11 C9         17.7394   -1.3181   53.4996 C.3       1 <0>         0.1406
     12 C10        18.2268   -2.7281   53.7934 C.3       1 <0>        -0.1091
     13 C11        16.4759   -0.9807   54.2756 C.3       1 <0>        -0.1091
     14 C12        21.0209   -0.3082   53.0368 C.ar      1 <0>         0.1597
     15 C13        21.9203    0.0325   52.0265 C.ar      1 <0>        -0.1321
     16 C14        21.4570    0.6189   50.8487 C.ar      1 <0>        -0.0620
     17 C15        22.4386    0.9749   49.7809 C.3       1 <0>        -0.0571
     18 N2         21.5036   -0.9009   54.2239 N.pl3     1 <0>        -0.7353
     19 C16        22.7251   -0.7920   54.9143 C.ar      1 <0>         0.9191
     20 N3         22.8456   -1.5181   56.0419 N.ar      1 <0>        -0.7424
     21 C17        24.0284   -1.3898   56.6781 C.ar      1 <0>         0.4902
     22 C18        25.0556   -0.5836   56.2316 C.ar      1 <0>        -0.3346
     23 Cl1        26.5259   -0.4858   57.1110 Cl        1 <0>        -0.0431
     24 C19        24.8070    0.1084   55.0639 C.ar      1 <0>         0.7256
     25 N4         23.6488    0.0273   54.3766 N.ar      1 <0>        -0.7889
     26 N5         25.8165    0.9560   54.5452 N.pl3     1 <0>        -0.7565
     27 C20        25.8731    1.7753   53.4061 C.ar      1 <0>         0.2934
     28 C21        24.6931    2.3405   52.9223 C.ar      1 <0>        -0.1849
     29 C22        24.7233    3.1567   51.7916 C.ar      1 <0>        -0.0414
     30 C23        25.9333    3.4077   51.1446 C.ar      1 <0>        -0.1831
     31 C24        27.1132    2.8425   51.6285 C.ar      1 <0>        -0.0125
     32 C25        27.0831    2.0263   52.7592 C.ar      1 <0>        -0.4359
     33 S1         28.5851    1.3336   53.3335 S.o2      1 <0>         1.3679
     34 O2         29.6619    1.8695   52.5157 O.2       1 <0>        -0.6585
     35 O3         28.6371    1.4664   54.7814 O.2       1 <0>        -0.6585
     36 C26        28.4320   -0.4003   52.9738 C.3       1 <0>        -0.2704
     37 C27        29.4017   -1.1994   53.8292 C.3       1 <0>        -0.0757
     38 C28        28.6581   -0.6488   51.4913 C.3       1 <0>        -0.0757
     39 H1         19.0800    3.4146   50.3238 H         1 <0>         0.0478
     40 H2         20.6722    3.3660   49.5773 H         1 <0>         0.0478
     41 H3         19.0519    4.7420   48.2660 H         1 <0>         0.0532
     42 H4         19.6816    3.4045   47.3147 H         1 <0>         0.0532
     43 H5         17.0962    3.4866   48.7238 H         1 <0>         0.3498
     44 H6         16.5741    1.4438   47.6434 H         1 <0>         0.0532
     45 H7         18.1844    1.4116   46.9391 H         1 <0>         0.0532
     46 H8         17.4640    1.2628   49.9182 H         1 <0>         0.0478
     47 H9         18.1117   -0.0428   48.9332 H         1 <0>         0.0478
     48 H10        20.2374    1.1531   48.5836 H         1 <0>         0.0580
     49 H11        18.1318    0.7145   51.5640 H         1 <0>         0.1426
     50 H12        17.5499   -1.2120   52.4269 H         1 <0>         0.0554
     51 H13        17.4648   -3.4715   53.5402 H         1 <0>         0.0459
     52 H14        19.1332   -2.9461   53.2184 H         1 <0>         0.0459
     53 H15        18.4905   -2.8426   54.8506 H         1 <0>         0.0459
     54 H16        15.6659   -1.6761   54.0357 H         1 <0>         0.0459
     55 H17        16.1446    0.0367   54.0417 H         1 <0>         0.0459
     56 H18        16.6561   -1.0121   55.3558 H         1 <0>         0.0459
     57 H19        22.9834   -0.1586   52.1557 H         1 <0>         0.1482
     58 H20        22.5714    0.1333   49.0911 H         1 <0>         0.0472
     59 H21        22.1015    1.8471   49.2074 H         1 <0>         0.0472
     60 H22        23.4148    1.2328   50.2099 H         1 <0>         0.0472
     61 H23        20.8375   -1.5285   54.6631 H         1 <0>         0.4750
     62 H24        24.1184   -1.9780   57.5862 H         1 <0>         0.0428
     63 H25        26.6580    0.9684   55.1096 H         1 <0>         0.4761
     64 H26        23.7435    2.1525   53.4171 H         1 <0>         0.1706
     65 H27        23.8041    3.5955   51.4142 H         1 <0>         0.1403
     66 H28        25.9565    4.0416   50.2631 H         1 <0>         0.1446
     67 H29        28.0497    3.0446   51.1154 H         1 <0>         0.1651
     68 H30        27.4039   -0.6663   53.2381 H         1 <0>         0.1153
     69 H31        29.3163   -2.2699   53.6161 H         1 <0>         0.0519
     70 H32        30.4386   -0.8961   53.6469 H         1 <0>         0.0519
     71 H33        29.1974   -1.0499   54.8949 H         1 <0>         0.0519
     72 H34        28.5662   -1.7144   51.2577 H         1 <0>         0.0519
     73 H35        29.6531   -0.3143   51.1775 H         1 <0>         0.0519
     74 H36        27.9228   -0.1059   50.8877 H         1 <0>         0.0519
@<TRIPOS>BOND
     1    1    6 1
     2    1    2 1
     3    2    3 1
     4    3    4 1
     5    4    5 1
     6    5    6 1
     7    6    7 1
     8    7   16 ar
     9    7    8 ar
    10    8    9 ar
    11    9   10 1
    12   10   11 1
    13   11   12 1
    14   11   13 1
    15    9   14 ar
    16   14   15 ar
    17   15   16 ar
    18   16   17 1
    19   14   18 1
    20   18   19 1
    21   19   25 ar
    22   19   20 ar
    23   20   21 ar
    24   21   22 ar
    25   22   23 1
    26   22   24 ar
    27   24   25 ar
    28   24   26 1
    29   26   27 1
    30   27   32 ar
    31   27   28 ar
    32   28   29 ar
    33   29   30 ar
    34   30   31 ar
    35   31   32 ar
    36   32   33 1
    37   33   34 2
    38   33   35 2
    39   33   36 1
    40   36   37 1
    41   36   38 1
    42    1   39 1
    43    1   40 1
    44    2   41 1
    45    2   42 1
    46    3   43 1
    47    4   44 1
    48    4   45 1
    49    5   46 1
    50    5   47 1
    51    6   48 1
    52    8   49 1
    53   11   50 1
    54   12   51 1
    55   12   52 1
    56   12   53 1
    57   13   54 1
    58   13   55 1
    59   13   56 1
    60   15   57 1
    61   17   58 1
    62   17   59 1
    63   17   60 1
    64   18   61 1
    65   21   62 1
    66   26   63 1
    67   28   64 1
    68   29   65 1
    69   30   66 1
    70   31   67 1
    71   36   68 1
    72   37   69 1
    73   37   70 1
    74   37   71 1
    75   38   72 1
    76   38   73 1
    77   38   74 1
@<TRIPOS>MOLECULE
Vemurafenib
   51    54     0     0     0
SMALL
USER_CHARGES

@<TRIPOS>ATOM
      1 C1         26.6208    6.2090   49.0067 C.3       1 <0>        -0.0973
      2 C2         25.1150    6.3860   49.1067 C.3       1 <0>        -0.0541
      3 C3         24.3755    5.1760   48.5601 C.3       1 <0>        -0.3274
      4 S1         22.6130    5.3861   48.6785 S.o2      1 <0>         1.4540
      5 O1         22.2762    6.5634   47.8999 O.2       1 <0>        -0.6414
      6 O2         22.2478    5.2993   50.0785 O.2       1 <0>        -0.6414
      7 N1         22.0812    4.0029   47.8112 N.pl3     1 <0>        -0.7731
      8 C4         21.8667    2.7968   48.5448 C.ar      1 <0>         0.0994
      9 C5         22.5945    1.6505   48.2252 C.ar      1 <0>        -0.1119
     10 C6         22.3868    0.4707   48.9396 C.ar      1 <0>        -0.1586
     11 C7         21.4512    0.4370   49.9736 C.ar      1 <0>         0.1595
     12 F1         21.2604   -0.7030   50.6527 F         1 <0>        -0.1215
     13 C8         20.7233    1.5833   50.2932 C.ar      1 <0>        -0.2107
     14 C9         20.9311    2.7631   49.5787 C.ar      1 <0>         0.1508
     15 F2         20.2316    3.8662   49.8857 F         1 <0>        -0.1203
     16 C10        19.7304    1.5475   51.3906 C.2       1 <0>         0.6288
     17 O3         18.7489    2.2819   51.3345 O.2       1 <0>        -0.5109
     18 C11        19.8887    0.6748   52.5185 C.2       1 <0>        -0.2253
     19 C12        18.8416    0.1382   53.2363 C.2       1 <0>         0.0814
     20 N2         19.3656   -0.6392   54.2364 N.pl3     1 <0>        -0.6652
     21 C13        20.7338   -0.6106   54.1714 C.ar      1 <0>         0.5409
     22 C14        21.0947    0.2059   53.1035 C.ar      1 <0>        -0.1542
     23 N3         21.5595   -1.2672   55.0081 N.ar      1 <0>        -0.6606
     24 C15        22.8672   -1.0675   54.7223 C.ar      1 <0>         0.4231
     25 C16        23.3658   -0.2819   53.6918 C.ar      1 <0>        -0.1684
     26 C17        22.4663    0.3761   52.8550 C.ar      1 <0>        -0.0325
     27 C18        24.7904   -0.1480   53.4907 C.ar      1 <0>        -0.0283
     28 C19        25.3104    1.0260   52.9456 C.ar      1 <0>        -0.1127
     29 C20        26.6856    1.1553   52.7514 C.ar      1 <0>        -0.1227
     30 C21        27.5408    0.1107   53.1023 C.ar      1 <0>         0.0189
     31 Cl1        29.2376    0.2701   52.8627 Cl        1 <0>        -0.0923
     32 C22        27.0207   -1.0633   53.6474 C.ar      1 <0>        -0.1227
     33 C23        25.6455   -1.1926   53.8415 C.ar      1 <0>        -0.1127
     34 H1         27.1334    7.0902   49.4051 H         1 <0>         0.0416
     35 H2         26.9519    5.3360   49.5783 H         1 <0>         0.0416
     36 H3         26.9321    6.0765   47.9655 H         1 <0>         0.0416
     37 H4         24.8175    7.2860   48.5558 H         1 <0>         0.0606
     38 H5         24.8372    6.5518   50.1543 H         1 <0>         0.0606
     39 H6         24.6057    5.0125   47.5031 H         1 <0>         0.1157
     40 H7         24.6259    4.2699   49.1197 H         1 <0>         0.1157
     41 H8         22.5331    3.8565   46.8984 H         1 <0>         0.4676
     42 H9         23.3260    1.6664   47.4214 H         1 <0>         0.1732
     43 H10        22.9533   -0.4219   48.6910 H         1 <0>         0.1646
     44 H11        17.7703    0.2379   53.1274 H         1 <0>         0.1772
     45 H12        18.8262   -1.1544   54.9181 H         1 <0>         0.4720
     46 H13        23.5435   -1.5953   55.3921 H         1 <0>         0.0285
     47 H14        22.8087    1.0017   52.0358 H         1 <0>         0.1675
     48 H15        24.6566    1.8490   52.6669 H         1 <0>         0.1417
     49 H16        27.0770    2.0758   52.3257 H         1 <0>         0.1489
     50 H17        27.6754   -1.8853   53.9254 H         1 <0>         0.1489
     51 H18        25.2552   -2.1139   54.2673 H         1 <0>         0.1417
@<TRIPOS>BOND
     1    1    2 1
     2    2    3 1
     3    3    4 1
     4    4    5 2
     5    4    6 2
     6    4    7 1
     7    7    8 1
     8    8   14 ar
     9    8    9 ar
    10    9   10 ar
    11   10   11 ar
    12   11   12 1
    13   11   13 ar
    14   13   14 ar
    15   14   15 1
    16   13   16 1
    17   16   17 2
    18   16   18 1
    19   18   22 1
    20   18   19 2
    21   19   20 1
    22   20   21 1
    23   21   22 ar
    24   22   26 ar
    25   21   23 ar
    26   23   24 ar
    27   24   25 ar
    28   25   26 ar
    29   25   27 1
    30   27   33 ar
    31   27   28 ar
    32   28   29 ar
    33   29   30 ar
    34   30   31 1
    35   30   32 ar
    36   32   33 ar
    37    1   34 1
    38    1   35 1
    39    1   36 1
    40    2   37 1
    41    2   38 1
    42    3   39 1
    43    3   40 1
    44    7   41 1
    45    9   42 1
    46   10   43 1
    47   19   44 1
    48   20   45 1
    49   24   46 1
    50   26   47 1
    51   28   48 1
    52   29   49 1
    53   32   50 1
    54   33   51 1
@<TRIPOS>MOLECULE
Dabrafenib
   55    58     0     0     0
SMALL
USER_CHARGES

@<TRIPOS>ATOM
      1 N1         23.6689   -1.3445   55.9941 N.pl3     1 <0>        -0.9667
      2 C1         22.5884   -1.1362   55.1094 C.ar      1 <0>         0.8932
      3 N2         22.8249   -0.3422   54.0477 N.ar      1 <0>        -0.7654
      4 C2         21.7714   -0.1646   53.2238 C.ar      1 <0>         0.5616
      5 C3         20.5335   -0.7395   53.4271 C.ar      1 <0>        -0.4074
      6 C4         20.4206   -1.5317   54.5514 C.ar      1 <0>         0.4696
      7 N3         21.4314   -1.7528   55.4173 N.ar      1 <0>        -0.7537
      8 C5         22.0296    0.6866   52.0864 C.2       1 <0>        -0.2641
      9 S1         20.7660    0.9892   50.9669 S.3       1 <0>        -0.0305
     10 C6         21.8392    1.9737   50.0592 C.2       1 <0>         0.3991
     11 C7         21.3291    2.6484   48.7751 C.3       1 <0>        -0.0848
     12 C8         20.1466    3.5819   49.1135 C.3       1 <0>        -0.0889
     13 C9         20.8557    1.5716   47.7749 C.3       1 <0>        -0.0889
     14 C10        22.3942    3.5047   48.0532 C.3       1 <0>        -0.0889
     15 N4         23.0618    2.0931   50.5273 N.2       1 <0>        -0.6055
     16 C11        23.1690    1.3549   51.6898 C.2       1 <0>         0.4078
     17 C12        24.4069    1.3038   52.4174 C.ar      1 <0>        -0.1365
     18 C13        24.6633    2.2440   53.4155 C.ar      1 <0>        -0.0847
     19 C14        25.8635    2.1985   54.1247 C.ar      1 <0>        -0.1292
     20 C15        26.8074    1.2129   53.8359 C.ar      1 <0>        -0.1097
     21 C16        26.5510    0.2728   52.8378 C.ar      1 <0>         0.0961
     22 C17        25.3508    0.3183   52.1286 C.ar      1 <0>         0.1419
     23 F1         25.1093   -0.5888   51.1689 F         1 <0>        -0.1261
     24 N5         27.5201   -0.7339   52.5446 N.pl3     1 <0>        -0.7810
     25 S2         28.5507   -1.2873   53.8093 S.o2      1 <0>         1.5139
     26 O1         27.9170   -1.0188   55.0867 O.2       1 <0>        -0.6307
     27 O2         29.0314   -2.6225   53.5101 O.2       1 <0>        -0.6307
     28 C18        29.9220   -0.1764   53.6737 C.ar      1 <0>        -0.4337
     29 C19        30.2622    0.3634   52.4333 C.ar      1 <0>         0.2591
     30 F2         29.5585    0.0480   51.3370 F         1 <0>        -0.1093
     31 C20        31.3430    1.2387   52.3265 C.ar      1 <0>        -0.2116
     32 C21        32.0835    1.5742   53.4599 C.ar      1 <0>        -0.0245
     33 C22        31.7432    1.0343   54.7003 C.ar      1 <0>        -0.2116
     34 C23        30.6625    0.1590   54.8072 C.ar      1 <0>         0.2591
     35 F3         30.3449   -0.3530   56.0046 F         1 <0>        -0.1093
     36 H1         24.5774   -0.9477   55.7936 H         1 <0>         0.4493
     37 H2         23.5693   -1.9681   56.7843 H         1 <0>         0.4493
     38 H3         19.6965   -0.5883   52.7569 H         1 <0>         0.1614
     39 H4         19.4859   -2.0259   54.7942 H         1 <0>         0.0280
     40 H5         19.7633    4.0766   48.2134 H         1 <0>         0.0443
     41 H6         19.3068    3.0410   49.5633 H         1 <0>         0.0443
     42 H7         20.4507    4.3634   49.8199 H         1 <0>         0.0443
     43 H8         20.4824    2.0077   46.8419 H         1 <0>         0.0443
     44 H9         21.6748    0.8941   47.5064 H         1 <0>         0.0443
     45 H10        20.0476    0.9654   48.2011 H         1 <0>         0.0443
     46 H11        21.9834    3.9638   47.1459 H         1 <0>         0.0443
     47 H12        22.7565    4.3199   48.6904 H         1 <0>         0.0443
     48 H13        23.2567    2.9016   47.7465 H         1 <0>         0.0443
     49 H14        23.9382    3.0189   53.6527 H         1 <0>         0.1531
     50 H15        26.0632    2.9303   54.9021 H         1 <0>         0.1443
     51 H16        27.7395    1.1857   54.3944 H         1 <0>         0.1477
     52 H17        27.2156   -1.4567   51.8726 H         1 <0>         0.4668
     53 H18        31.6076    1.6585   51.3605 H         1 <0>         0.1619
     54 H19        32.9247    2.2560   53.3763 H         1 <0>         0.1493
     55 H20        32.3202    1.2952   55.5826 H         1 <0>         0.1619
@<TRIPOS>BOND
     1    1    2 1
     2    2    7 ar
     3    2    3 ar
     4    3    4 ar
     5    4    5 ar
     6    5    6 ar
     7    6    7 ar
     8    4    8 1
     9    8   16 2
    10    8    9 1
    11    9   10 1
    12   10   11 1
    13   11   12 1
    14   11   13 1
    15   11   14 1
    16   10   15 2
    17   15   16 1
    18   16   17 1
    19   17   22 ar
    20   17   18 ar
    21   18   19 ar
    22   19   20 ar
    23   20   21 ar
    24   21   22 ar
    25   22   23 1
    26   21   24 1
    27   24   25 1
    28   25   26 2
    29   25   27 2
    30   25   28 1
    31   28   34 ar
    32   28   29 ar
    33   29   30 1
    34   29   31 ar
    35   31   32 ar
    36   32   33 ar
    37   33   34 ar
    38   34   35 1
    39    1   36 1
    40    1   37 1
    41    5   38 1
    42    6   39 1
    43   12   40 1
    44   12   41 1
    45   12   42 1
    46   13   43 1
    47   13   44 1
    48   13   45 1
    49   14   46 1
    50   14   47 1
    51   14   48 1
    52   18   49 1
    53   19   50 1
    54   20   51 1
    55   24   52 1
    56   31   53 1
    57   32   54 1
    58   33   55 1
@<TRIPOS>MOLECULE
Ruxolitinib
   41    44     0     0     0
SMALL
USER_CHARGES

@<TRIPOS>ATOM
      1 C1         24.2975    0.5146   52.5003 C.2       1 <0>        -0.1585
      2 C2         25.6641    0.6435   52.3705 C.2       1 <0>        -0.0004
      3 N1         26.2556   -0.0239   53.4123 N.pl3     1 <0>        -0.6775
      4 C3         25.2884   -0.5798   54.2069 C.ar      1 <0>         0.5701
      5 C4         24.0506   -0.2604   53.6623 C.ar      1 <0>        -0.3121
      6 N2         25.5146   -1.3047   55.3163 N.ar      1 <0>        -0.6994
      7 C5         24.3559   -1.7106   55.8744 C.ar      1 <0>         0.6409
      8 N3         23.0903   -1.4777   55.4596 N.ar      1 <0>        -0.7080
      9 C6         22.9288   -0.7412   54.3360 C.ar      1 <0>         0.5812
     10 C7         21.6037   -0.4769   53.8679 C.2       1 <0>        -0.3306
     11 C8         20.5189    0.1854   54.4732 C.2       1 <0>         0.3412
     12 N4         19.4361    0.2220   53.6920 N.2       1 <0>        -0.5193
     13 N5         19.8382   -0.4221   52.5831 N.pl3     1 <0>         0.0818
     14 C9         21.1284   -0.8609   52.6378 C.2       1 <0>        -0.1074
     15 C10        18.8728   -0.5993   51.4210 C.3       1 <0>         0.0896
     16 H1         18.7414   -1.6758   51.2417 H         1 <0>         0.0714
     17 C11        19.3868    0.0359   50.1135 C.3       1 <0>        -0.0317
     18 C12        19.6062    1.4847   50.2527 C.1       1 <0>         0.2060
     19 N6         19.7779    2.6271   50.3612 N.1       1 <0>        -0.3654
     20 C13        17.5033   -0.0465   51.7748 C.3       1 <0>        -0.0885
     21 C14        16.6068    0.1631   50.5584 C.3       1 <0>        -0.0805
     22 C15        15.2021    0.2620   51.1454 C.3       1 <0>        -0.0795
     23 C16        15.2480   -0.4753   52.4848 C.3       1 <0>        -0.0795
     24 C17        16.6733   -0.9981   52.6305 C.3       1 <0>        -0.0805
     25 H2         23.5647    0.9359   51.8258 H         1 <0>         0.1631
     26 H3         26.2674    1.1506   51.6307 H         1 <0>         0.1716
     27 H4         27.2516   -0.0952   53.5693 H         1 <0>         0.4681
     28 H5         24.4511   -2.3035   56.7777 H         1 <0>         0.0535
     29 H6         20.4687    0.6444   55.4508 H         1 <0>         0.0544
     30 H7         21.5838   -1.3954   51.8145 H         1 <0>         0.1844
     31 H8         20.3391   -0.4320   49.8339 H         1 <0>         0.0987
     32 H9         18.6939   -0.1515   49.2848 H         1 <0>         0.0987
     33 H10        17.6257    0.9069   52.3054 H         1 <0>         0.0655
     34 H11        16.8776    1.0585   49.9903 H         1 <0>         0.0502
     35 H12        16.6628   -0.6961   49.8787 H         1 <0>         0.0502
     36 H13        14.9287    1.3111   51.3074 H         1 <0>         0.0444
     37 H14        14.4575   -0.1690   50.4684 H         1 <0>         0.0444
     38 H15        15.0127    0.2207   53.2985 H         1 <0>         0.0444
     39 H16        14.5176   -1.2894   52.5274 H         1 <0>         0.0444
     40 H17        16.9995   -1.0131   53.6749 H         1 <0>         0.0502
     41 H18        16.7320   -2.0236   52.2452 H         1 <0>         0.0502
@<TRIPOS>BOND
     1    1    5 1
     2    1    2 2
     3    2    3 1
     4    3    4 1
     5    4    5 ar
     6    5    9 ar
     7    4    6 ar
     8    6    7 ar
     9    7    8 ar
    10    8    9 ar
    11    9   10 1
    12   10   14 2
    13   10   11 1
    14   11   12 2
    15   12   13 1
    16   13   14 1
    17   13   15 1
    18   15   16 1
    19   15   17 1
    20   17   18 1
    21   18   19 3
    22   15   20 1
    23   20   24 1
    24   20   21 1
    25   21   22 1
    26   22   23 1
    27   23   24 1
    28    1   25 1
    29    2   26 1
    30    3   27 1
    31    7   28 1
    32   11   29 1
    33   14   30 1
    34   17   31 1
    35   17   32 1
    36   20   33 1
    37   21   34 1
    38   21   35 1
    39   22   36 1
    40   22   37 1
    41   23   38 1
    42   23   39 1
    43   24   40 1
    44   24   41 1
@<TRIPOS>MOLECULE
Tofacitinib
   43    45     0     0     0
SMALL
USER_CHARGES

@<TRIPOS>ATOM
      1 C1         24.4537    2.5766   53.3687 C.3       1 <0>        -0.0919
      2 C2         25.8601    1.9828   53.4640 C.3       1 <0>        -0.0792
      3 H1         26.3612    2.4891   54.3159 H         1 <0>         0.0730
      4 C3         26.6846    2.3112   52.2127 C.3       1 <0>        -0.0953
      5 C4         28.1425    1.8881   52.4016 C.3       1 <0>         0.0918
      6 N1         28.2908    0.6349   53.1436 N.am      1 <0>        -0.4747
      7 C5         29.5345    0.3256   53.6936 C.2       1 <0>         0.6658
      8 O1         29.7647   -0.7028   54.3355 O.2       1 <0>        -0.5829
      9 C6         30.6416    1.3241   53.4703 C.3       1 <0>        -0.0873
     10 C7         30.6474    2.2945   54.5572 C.1       1 <0>         0.2190
     11 N2         30.6655    3.0754   55.4153 N.1       1 <0>        -0.3443
     12 C8         27.1174   -0.2414   53.1544 C.3       1 <0>         0.0886
     13 C9         25.8991    0.4639   53.7709 C.3       1 <0>         0.2500
     14 H2         25.9505    0.3256   54.8731 H         1 <0>         0.0656
     15 N3         24.7028   -0.2172   53.3172 N.pl3     1 <0>        -0.8092
     16 C10        24.4471   -0.2861   51.8809 C.3       1 <0>         0.2114
     17 C11        23.8177   -0.8077   54.2244 C.ar      1 <0>         0.7494
     18 N4         24.2544   -1.7911   55.0448 N.ar      1 <0>        -0.7855
     19 C12        23.3589   -2.3285   55.9036 C.ar      1 <0>         0.6720
     20 N5         22.0565   -2.0190   56.0672 N.ar      1 <0>        -0.7297
     21 C13        21.6839   -1.0383   55.2264 C.ar      1 <0>         0.5907
     22 C14        22.4882   -0.3941   54.2944 C.ar      1 <0>        -0.3614
     23 N6         20.4275   -0.4991   55.1447 N.pl3     1 <0>        -0.6743
     24 C15        20.4102    0.4768   54.1813 C.2       1 <0>        -0.0140
     25 C16        21.6740    0.5632   53.6367 C.2       1 <0>        -0.1552
     26 H3         23.8988    2.1198   52.5437 H         1 <0>         0.0392
     27 H4         23.8990    2.4020   54.2954 H         1 <0>         0.0392
     28 H5         24.5031    3.6556   53.1947 H         1 <0>         0.0392
     29 H6         26.2713    1.8038   51.3368 H         1 <0>         0.0516
     30 H7         26.6469    3.3847   52.0120 H         1 <0>         0.0516
     31 H8         28.6337    1.8189   51.4166 H         1 <0>         0.0483
     32 H9         28.6917    2.6631   52.9646 H         1 <0>         0.0483
     33 H10        31.5766    0.7690   53.4276 H         1 <0>         0.0938
     34 H11        30.4591    1.8029   52.5104 H         1 <0>         0.0938
     35 H12        26.8668   -0.6140   52.1589 H         1 <0>         0.0606
     36 H13        27.3811   -1.1179   53.7586 H         1 <0>         0.0606
     37 H14        23.5198   -0.8246   51.7135 H         1 <0>         0.0443
     38 H15        25.2692   -0.8059   51.3988 H         1 <0>         0.0443
     39 H16        24.3662    0.7219   51.4863 H         1 <0>         0.0443
     40 H17        23.7400   -3.1139   56.5473 H         1 <0>         0.0498
     41 H18        19.6362   -0.7769   55.7083 H         1 <0>         0.4674
     42 H19        19.5016    1.0222   53.9684 H         1 <0>         0.1714
     43 H20        21.9694    1.2452   52.8512 H         1 <0>         0.1598
@<TRIPOS>BOND
     1    1    2 1
     2    2    3 1
     3    2   13 1
     4    2    4 1
     5    4    5 1
     6    5    6 1
     7    6    7 am
     8    7    8 2
     9    7    9 1
    10    9   10 1
    11   10   11 3
    12    6   12 1
    13   12   13 1
    14   13   14 1
    15   13   15 1
    16   15   16 1
    17   15   17 1
    18   17   22 ar
    19   17   18 ar
    20   18   19 ar
    21   19   20 ar
    22   20   21 ar
    23   21   22 ar
    24   22   25 1
    25   21   23 1
    26   23   24 1
    27   24   25 2
    28    1   26 1
    29    1   27 1
    30    1   28 1
    31    4   29 1
    32    4   30 1
    33    5   31 1
    34    5   32 1
    35    9   33 1
    36    9   34 1
    37   12   35 1
    38   12   36 1
    39   16   37 1
    40   16   38 1
    41   16   39 1
    42   19   40 1
    43   23   41 1
    44   24   42 1
    45   25   43 1
@<TRIPOS>MOLECULE
Cabozantinib
   61    65     0     0     0
SMALL
USER_CHARGES

@<TRIPOS>ATOM
      1 C1         28.2610    4.0116   52.4735 C.3       1 <0>         0.1210
      2 O1         27.3061    3.3585   51.6453 O.3       1 <0>        -0.3459
      3 C2         26.6677    2.2796   52.1787 C.ar      1 <0>         0.1002
      4 C3         27.2200    1.0067   52.0157 C.ar      1 <0>        -0.1885
      5 C4         25.4783    2.4366   52.8794 C.ar      1 <0>         0.0750
      6 O2         24.9270    3.6699   53.0475 O.3       1 <0>        -0.3393
      7 C5         24.0093    4.1122   52.0487 C.3       1 <0>         0.1173
      8 C6         24.8441    1.3196   53.4154 C.ar      1 <0>        -0.0984
      9 C7         25.3998    0.0393   53.2513 C.ar      1 <0>        -0.1574
     10 C8         26.6072   -0.1276   52.5412 C.ar      1 <0>         0.4159
     11 C9         24.7824   -1.1021   53.7804 C.ar      1 <0>         0.1706
     12 C10        25.3564   -2.3525   53.6012 C.ar      1 <0>        -0.3309
     13 C11        26.5388   -2.4161   52.8923 C.ar      1 <0>         0.4415
     14 N1         27.1666   -1.3397   52.3657 N.ar      1 <0>        -0.6766
     15 O3         23.6131   -1.0230   54.4795 O.3       1 <0>        -0.2420
     16 C12        22.5114   -0.4997   53.8272 C.ar      1 <0>         0.0429
     17 C13        21.6985    0.4336   54.4705 C.ar      1 <0>        -0.1009
     18 C14        20.5872    0.9612   53.8130 C.ar      1 <0>        -0.1613
     19 C15        20.2888    0.5555   52.5122 C.ar      1 <0>         0.0733
     20 C16        21.1017   -0.3778   51.8690 C.ar      1 <0>        -0.1613
     21 C17        22.2130   -0.9055   52.5265 C.ar      1 <0>        -0.1009
     22 N2         19.1751    1.0805   51.8560 N.am      1 <0>        -0.4594
     23 C18        18.7202    0.7964   50.5614 C.2       1 <0>         0.7113
     24 O4         19.2164    0.0219   49.7497 O.2       1 <0>        -0.5686
     25 C19        17.4743    1.5759   50.2229 C.3       1 <0>        -0.2958
     26 C20        16.8114    1.2172   48.9209 C.3       1 <0>        -0.0970
     27 C21        17.5788    2.4958   49.0371 C.3       1 <0>        -0.0970
     28 C22        16.6295    1.9813   51.3495 C.2       1 <0>         0.7102
     29 O5         17.0461    2.7151   52.2706 O.2       1 <0>        -0.5801
     30 N3         15.3293    1.4543   51.2707 N.am      1 <0>        -0.4605
     31 C23        14.2428    1.6215   52.1618 C.ar      1 <0>         0.0530
     32 C24        13.0206    1.0045   51.8950 C.ar      1 <0>        -0.1433
     33 C25        11.9495    1.1699   52.7730 C.ar      1 <0>        -0.1378
     34 C26        12.1005    1.9522   53.9179 C.ar      1 <0>         0.1006
     35 F1         11.0712    2.1131   54.7597 F         1 <0>        -0.1396
     36 C27        13.3228    2.5691   54.1848 C.ar      1 <0>        -0.1378
     37 C28        14.3939    2.4038   53.3067 C.ar      1 <0>        -0.1433
     38 H1         28.6980    4.8543   51.9322 H         1 <0>         0.0438
     39 H2         29.0428    3.3030   52.7584 H         1 <0>         0.0438
     40 H3         27.7600    4.3792   53.3721 H         1 <0>         0.0438
     41 H4         28.1526    0.9031   51.4629 H         1 <0>         0.1650
     42 H5         23.6515    5.1066   52.3118 H         1 <0>         0.0436
     43 H6         23.1796    3.4084   51.9932 H         1 <0>         0.0436
     44 H7         24.5304    4.1469   51.0930 H         1 <0>         0.0436
     45 H8         23.9133    1.4578   53.9618 H         1 <0>         0.1643
     46 H9         24.8979   -3.2501   54.0004 H         1 <0>         0.1586
     47 H10        27.0332   -3.3665   52.7202 H         1 <0>         0.0242
     48 H11        21.9264    0.7540   55.4834 H         1 <0>         0.1546
     49 H12        19.9599    1.6873   54.3240 H         1 <0>         0.1579
     50 H13        20.8781   -0.7015   50.8557 H         1 <0>         0.1579
     51 H14        22.8426   -1.6318   52.0197 H         1 <0>         0.1546
     52 H15        18.6142    1.7602   52.3826 H         1 <0>         0.3319
     53 H16        17.2330    0.4318   48.3042 H         1 <0>         0.0906
     54 H17        15.7307    1.2819   48.8701 H         1 <0>         0.0906
     55 H18        18.5164    2.5705   48.4985 H         1 <0>         0.0906
     56 H19        17.0141    3.4206   49.0643 H         1 <0>         0.0906
     57 H20        15.1427    0.8700   50.4584 H         1 <0>         0.3220
     58 H21        12.8914    0.3924   51.0059 H         1 <0>         0.1556
     59 H22        10.9974    0.6901   52.5660 H         1 <0>         0.1521
     60 H23        13.4394    3.1781   55.0764 H         1 <0>         0.1521
     61 H24        15.3418    2.8893   53.5248 H         1 <0>         0.1556
@<TRIPOS>BOND
     1    1    2 1
     2    2    3 1
     3    3    4 ar
     4    4   10 ar
     5    3    5 ar
     6    5    6 1
     7    6    7 1
     8    5    8 ar
     9    8    9 ar
    10    9   10 ar
    11   10   14 ar
    12    9   11 ar
    13   11   12 ar
    14   12   13 ar
    15   13   14 ar
    16   11   15 1
    17   15   16 1
    18   16   21 ar
    19   16   17 ar
    20   17   18 ar
    21   18   19 ar
    22   19   20 ar
    23   20   21 ar
    24   19   22 1
    25   22   23 am
    26   23   24 2
    27   23   25 1
    28   25   27 1
    29   25   26 1
    30   26   27 1
    31   25   28 1
    32   28   29 2
    33   28   30 am
    34   30   31 1
    35   31   37 ar
    36   31   32 ar
    37   32   33 ar
    38   33   34 ar
    39   34   35 1
    40   34   36 ar
    41   36   37 ar
    42    1   38 1
    43    1   39 1
    44    1   40 1
    45    4   41 1
    46    7   42 1
    47    7   43 1
    48    7   44 1
    49    8   45 1
    50   12   46 1
    51   13   47 1
    52   17   48 1
    53   18   49 1
    54   20   50 1
    55   21   51 1
    56   22   52 1
    57   26   53 1
    58   26   54 1
    59   27   55 1
    60   27   56 1
    61   30   57 1
    62   32   58 1
    63   33   59 1
    64   36   60 1
    65   37   61 1
@<TRIPOS>MOLECULE
Ibrutinib
   57    61     0     0     0
SMALL
USER_CHARGES

@<TRIPOS>ATOM
      1 C1         31.7950    1.2234   55.3895 C.2       1 <0>        -0.1586
      2 C2         30.9768    0.9639   54.3675 C.2       1 <0>        -0.2213
      3 C3         29.5360    1.2498   54.5172 C.2       1 <0>         0.6627
      4 O1         29.2073    2.4142   54.7500 O.2       1 <0>        -0.5894
      5 N1         28.6474    0.1855   54.3915 N.am      1 <0>        -0.4766
      6 C4         29.1711   -1.1603   54.1484 C.3       1 <0>         0.0880
      7 C5         28.5560   -1.7589   52.8858 C.3       1 <0>        -0.1000
      8 C6         27.0278   -1.7132   52.9255 C.3       1 <0>        -0.1028
      9 C7         26.5187   -0.2930   53.2349 C.3       1 <0>         0.2404
     10 H1         26.7500    0.3780   52.3816 H         1 <0>         0.0803
     11 C8         27.1828    0.2524   54.5107 C.3       1 <0>         0.0882
     12 N2         25.0041   -0.2465   53.3157 N.pl3     1 <0>        -0.4010
     13 C9         24.2091   -0.9416   54.1778 C.ar      1 <0>         0.6083
     14 C10        22.9086   -0.5777   53.8759 C.ar      1 <0>        -0.5024
     15 N3         24.6074   -1.8037   55.1266 N.ar      1 <0>        -0.7458
     16 C11        23.5434   -2.3047   55.7906 C.ar      1 <0>         0.6960
     17 N4         22.2276   -2.0422   55.6060 N.ar      1 <0>        -0.8008
     18 C12        21.8971   -1.1618   54.6309 C.ar      1 <0>         0.7698
     19 N5         20.5438   -0.8550   54.4010 N.pl3     1 <0>        -0.9659
     20 N6         24.3182    0.5460   52.4711 N.2       1 <0>        -0.4087
     21 C13        23.0428    0.3400   52.8174 C.2       1 <0>         0.4200
     22 C14        21.9904    1.0343   52.1193 C.ar      1 <0>        -0.1299
     23 C15        21.4101    0.4636   50.9865 C.ar      1 <0>        -0.0897
     24 C16        20.3913    1.1355   50.3111 C.ar      1 <0>        -0.1582
     25 C17        19.9529    2.3782   50.7683 C.ar      1 <0>         0.1075
     26 C18        20.5333    2.9490   51.9011 C.ar      1 <0>        -0.1582
     27 C19        21.5520    2.2771   52.5765 C.ar      1 <0>        -0.0897
     28 O2         18.9588    3.0338   50.1091 O.3       1 <0>        -0.2520
     29 C20        17.6543    2.7894   50.5042 C.ar      1 <0>         0.0914
     30 C21        16.9266    1.7594   49.9081 C.ar      1 <0>        -0.1478
     31 C22        15.6126    1.5129   50.3061 C.ar      1 <0>        -0.1123
     32 C23        15.0263    2.2965   51.3001 C.ar      1 <0>        -0.1430
     33 C24        15.7541    3.3265   51.8961 C.ar      1 <0>        -0.1123
     34 C25        17.0680    3.5730   51.4981 C.ar      1 <0>        -0.1478
     35 H2         32.8622    1.0349   55.3396 H         1 <0>         0.1244
     36 H3         31.4001    1.6375   56.3112 H         1 <0>         0.1244
     37 H4         31.3329    0.5514   53.4326 H         1 <0>         0.1434
     38 H5         30.2617   -1.1468   54.0555 H         1 <0>         0.0528
     39 H6         28.9245   -1.7728   55.0237 H         1 <0>         0.0528
     40 H7         28.9150   -1.2067   52.0085 H         1 <0>         0.0546
     41 H8         28.8889   -2.7964   52.7694 H         1 <0>         0.0546
     42 H9         26.6219   -2.0598   51.9674 H         1 <0>         0.0643
     43 H10        26.6651   -2.4139   53.6893 H         1 <0>         0.0643
     44 H11        26.8263    1.2602   54.7296 H         1 <0>         0.0821
     45 H12        26.9054   -0.3603   55.3790 H         1 <0>         0.0821
     46 H13        23.7733   -3.0121   56.5803 H         1 <0>         0.0512
     47 H14        20.3056   -0.1685   53.7113 H         1 <0>         0.4491
     48 H15        19.8416   -1.2556   54.9928 H         1 <0>         0.4491
     49 H16        21.7410   -0.5042   50.6171 H         1 <0>         0.1482
     50 H17        19.9425    0.6857   49.4297 H         1 <0>         0.1540
     51 H18        20.1964    3.9171   52.2619 H         1 <0>         0.1540
     52 H19        21.9937    2.7349   53.4585 H         1 <0>         0.1482
     53 H20        17.3781    1.1451   49.1339 H         1 <0>         0.1500
     54 H21        15.0462    0.7103   49.8429 H         1 <0>         0.1369
     55 H22        14.0040    2.1037   51.6113 H         1 <0>         0.1346
     56 H23        15.2975    3.9361   52.6707 H         1 <0>         0.1369
     57 H24        17.6298    4.3768   51.9659 H         1 <0>         0.1500
@<TRIPOS>BOND
     1    1    2 2
     2    2    3 1
     3    3    4 2
     4    3    5 am
     5    5   11 1
     6    5    6 1
     7    6    7 1
     8    7    8 1
     9    8    9 1
    10    9   10 1
    11    9   11 1
    12    9   12 1
    13   12   13 1
    14   13   14 ar
    15   14   21 1
    16   14   18 ar
    17   13   15 ar
    18   15   16 ar
    19   16   17 ar
    20   17   18 ar
    21   18   19 1
    22   12   20 1
    23   20   21 2
    24   21   22 1
    25   22   27 ar
    26   22   23 ar
    27   23   24 ar
    28   24   25 ar
    29   25   26 ar
    30   26   27 ar
    31   25   28 1
    32   28   29 1
    33   29   34 ar
    34   29   30 ar
    35   30   31 ar
    36   31   32 ar
    37   32   33 ar
    38   33   34 ar
    39    1   35 1
    40    1   36 1
    41    2   37 1
    42    6   38 1
    43    6   39 1
    44    7   40 1
    45    7   41 1
    46    8   42 1
    47    8   43 1
    48   11   44 1
    49   11   45 1
    50   16   46 1
    51   19   47 1
    52   19   48 1
    53   23   49 1
    54   24   50 1
    55   26   51 1
    56   27   52 1
    57   30   53 1
    58   31   54 1
    59   32   55 1
    60   33   56 1
    61   34   57 1
@<TRIPOS>MOLECULE
Nintedanib
   73    77     0     0     0
SMALL
USER_CHARGES

@<TRIPOS>ATOM
      1 C1         27.7199   -3.8457   52.9311 C.3       1 <0>         0.1496
      2 N1         27.5675   -2.5766   53.6400 N.3       1 <0>        -0.7221
      3 C2         26.2281   -2.0160   53.4234 C.3       1 <0>         0.1624
      4 C3         26.0681   -0.6837   54.1637 C.3       1 <0>         0.1747
      5 N2         27.0980    0.2742   53.7434 N.3       1 <0>        -0.7298
      6 C4         28.4375   -0.2859   53.9608 C.3       1 <0>         0.1747
      7 C5         28.5982   -1.6187   53.2216 C.3       1 <0>         0.1624
      8 C6         26.9454    1.5442   54.4504 C.3       1 <0>         0.1179
      9 C7         27.6597    2.6320   53.6779 C.2       1 <0>         0.6587
     10 O1         28.5804    3.2675   54.1981 O.2       1 <0>        -0.5613
     11 N3         27.2138    2.7993   52.3476 N.am      1 <0>        -0.3950
     12 C8         28.1247    3.2261   51.2739 C.3       1 <0>         0.0772
     13 C9         25.8355    2.5593   51.9696 C.ar      1 <0>         0.0681
     14 C10        25.5329    1.5895   51.0138 C.ar      1 <0>        -0.1433
     15 C11        24.2062    1.3586   50.6503 C.ar      1 <0>        -0.1119
     16 C12        23.1821    2.0976   51.2426 C.ar      1 <0>         0.0906
     17 C13        23.4847    3.0674   52.1984 C.ar      1 <0>        -0.1119
     18 C14        24.8115    3.2983   52.5619 C.ar      1 <0>        -0.1433
     19 N4         21.8406    1.8643   50.8750 N.pl3     1 <0>        -0.6223
     20 C15        20.9557    0.9994   51.4172 C.2       1 <0>         0.3091
     21 C16        21.4244    0.1671   52.5542 C.ar      1 <0>        -0.0872
     22 C17        22.0052   -1.0782   52.3141 C.ar      1 <0>        -0.0995
     23 C18        22.4455   -1.8600   53.3821 C.ar      1 <0>        -0.1340
     24 C19        22.3050   -1.3965   54.6902 C.ar      1 <0>        -0.1162
     25 C20        21.7242   -0.1512   54.9303 C.ar      1 <0>        -0.1340
     26 C21        21.2839    0.6305   53.8623 C.ar      1 <0>        -0.0995
     27 C22        19.6758    0.8503   51.0079 C.2       1 <0>        -0.2701
     28 C23        19.0901    1.6431   49.8880 C.2       1 <0>         0.7171
     29 O2         19.6452    2.4910   49.2140 O.2       1 <0>        -0.6487
     30 N5         17.7735    1.1778   49.8089 N.am      1 <0>        -0.4707
     31 C24        18.6700   -0.0478   51.5359 C.ar      1 <0>        -0.0264
     32 C25        17.5255    0.1909   50.7694 C.ar      1 <0>         0.0305
     33 C26        18.6570   -0.9871   52.5495 C.ar      1 <0>        -0.1153
     34 C27        17.4666   -1.6852   52.7793 C.ar      1 <0>        -0.0975
     35 C28        16.3196   -1.4372   52.0017 C.ar      1 <0>        -0.1119
     36 C29        16.3404   -0.4865   50.9793 C.ar      1 <0>        -0.1132
     37 C30        15.0984   -2.1818   52.2673 C.2       1 <0>         0.6466
     38 O3         13.9563   -1.7451   52.0736 O.2       1 <0>        -0.5413
     39 O4         15.3674   -3.4300   52.7583 O.3       1 <0>        -0.4408
     40 C31        14.2425   -4.2630   53.0588 C.3       1 <0>         0.1273
     41 H1         26.9473   -4.5498   53.2510 H         1 <0>         0.0332
     42 H2         28.7009   -4.2804   53.1410 H         1 <0>         0.0332
     43 H3         27.6291   -3.6896   51.8528 H         1 <0>         0.0332
     44 H4         26.0332   -1.8689   52.3523 H         1 <0>         0.0420
     45 H5         25.4695   -2.7128   53.8001 H         1 <0>         0.0420
     46 H6         25.0732   -0.2811   53.9373 H         1 <0>         0.0400
     47 H7         26.1117   -0.8559   55.2478 H         1 <0>         0.0400
     48 H8         29.1961    0.4109   53.5840 H         1 <0>         0.0400
     49 H9         28.6319   -0.4322   55.0321 H         1 <0>         0.0400
     50 H10        28.5562   -1.4466   52.1374 H         1 <0>         0.0420
     51 H11        29.5927   -2.0214   53.4493 H         1 <0>         0.0420
     52 H12        27.3906    1.3942   55.4290 H         1 <0>         0.0554
     53 H13        25.8781    1.7325   54.5090 H         1 <0>         0.0554
     54 H14        28.5617    2.3438   50.8256 H         1 <0>         0.0443
     55 H15        28.8948    3.8523   51.7049 H         1 <0>         0.0443
     56 H16        27.5551    3.7808   50.5399 H         1 <0>         0.0443
     57 H17        26.3232    1.0079   50.5457 H         1 <0>         0.1519
     58 H18        23.9814    0.6006   49.9043 H         1 <0>         0.1438
     59 H19        22.6944    3.6489   52.6664 H         1 <0>         0.1438
     60 H20        25.0353    4.0566   53.3079 H         1 <0>         0.1519
     61 H21        21.4936    2.4183   50.1010 H         1 <0>         0.4658
     62 H22        22.1217   -1.4532   51.3001 H         1 <0>         0.1430
     63 H23        22.8976   -2.8297   53.1954 H         1 <0>         0.1382
     64 H24        22.6477   -2.0052   55.5219 H         1 <0>         0.1373
     65 H25        21.6149    0.2096   55.9488 H         1 <0>         0.1382
     66 H26        20.8331    1.5990   54.0655 H         1 <0>         0.1430
     67 H27        17.0878    1.5122   49.1421 H         1 <0>         0.3426
     68 H28        19.5348   -1.1861   53.1542 H         1 <0>         0.1504
     69 H29        17.4369   -2.4282   53.5734 H         1 <0>         0.1522
     70 H30        15.4634   -0.2859   50.3734 H         1 <0>         0.1571
     71 H31        14.6047   -5.2161   53.4370 H         1 <0>         0.0501
     72 H32        13.6591   -4.4030   52.1514 H         1 <0>         0.0501
     73 H33        13.6427   -3.7636   53.8161 H         1 <0>         0.0501
@<TRIPOS>BOND
     1    1    2 1
     2    2    7 1
     3    2    3 1
     4    3    4 1
     5    4    5 1
     6    5    6 1
     7    6    7 1
     8    5    8 1
     9    8    9 1
    10    9   10 2
    11    9   11 am
    12   11   12 1
    13   11   13 1
    14   13   18 ar
    15   13   14 ar
    16   14   15 ar
    17   15   16 ar
    18   16   17 ar
    19   17   18 ar
    20   16   19 1
    21   19   20 1
    22   20   21 1
    23   21   26 ar
    24   21   22 ar
    25   22   23 ar
    26   23   24 ar
    27   24   25 ar
    28   25   26 ar
    29   20   27 2
    30   27   28 1
    31   28   29 2
    32   28   30 am
    33   30   32 1
    34   27   31 1
    35   31   32 ar
    36   32   36 ar
    37   31   33 ar
    38   33   34 ar
    39   34   35 ar
    40   35   36 ar
    41   35   37 1
    42   37   38 2
    43   37   39 1
    44   39   40 1
    45    1   41 1
    46    1   42 1
    47    1   43 1
    48    3   44 1
    49    3   45 1
    50    4   46 1
    51    4   47 1
    52    6   48 1
    53    6   49 1
    54    7   50 1
    55    7   51 1
    56    8   52 1
    57    8   53 1
    58   12   54 1
    59   12   55 1
    60   12   56 1
    61   14   57 1
    62   15   58 1
    63   17   59 1
    64   18   60 1
    65   19   61 1
    66   22   62 1
    67   23   63 1
    68   24   64 1
    69   25   65 1
    70   26   66 1
    71   30   67 1
    72   33   68 1
    73   34   69 1
    74   36   70 1
    75   40   71 1
    76   40   72 1
    77   40   73 1
@<TRIPOS>MOLECULE
Trametinib
   60    64     0     0     0
SMALL
USER_CHARGES

@<TRIPOS>ATOM
      1 I1         13.1695    1.9470   52.4511 I         1 <0>        -0.1219
      2 C1         15.0743    1.2600   51.9866 C.ar      1 <0>         0.0391
      3 C2         15.2591   -0.0620   51.5816 C.ar      1 <0>        -0.0909
      4 C3         16.5375   -0.5227   51.2667 C.ar      1 <0>        -0.1346
      5 C4         17.6311    0.3386   51.3569 C.ar      1 <0>         0.1044
      6 C5         17.4462    1.6605   51.7619 C.ar      1 <0>         0.1152
      7 F1         18.4897    2.4975   51.8499 F         1 <0>        -0.1270
      8 C6         16.1678    2.1212   52.0768 C.ar      1 <0>        -0.1217
      9 N1         18.9198   -0.1287   51.0395 N.pl3     1 <0>        -0.6244
     10 C7         20.0412   -0.1833   51.8428 C.2       1 <0>         0.3688
     11 N2         20.0011   -0.9182   53.0408 N.am      1 <0>        -0.3471
     12 C8         18.7936   -1.6865   53.3610 C.3       1 <0>         0.0562
     13 C9         21.0369   -0.9213   53.9720 C.2       1 <0>         0.7039
     14 O1         20.9946   -1.5246   55.0463 O.2       1 <0>        -0.6196
     15 C10        22.2734   -0.1479   53.6170 C.2       1 <0>        -0.2506
     16 C11        23.2539   -0.0391   54.7594 C.3       1 <0>        -0.0437
     17 C12        22.3811    0.4052   52.3850 C.2       1 <0>         0.2015
     18 C13        21.1940    0.4748   51.5369 C.2       1 <0>        -0.3569
     19 N3         23.5716    0.9774   51.8878 N.am      1 <0>        -0.3007
     20 C14        23.5613    1.9805   50.8825 C.2       1 <0>         0.8209
     21 O2         24.5790    2.5371   50.4521 O.2       1 <0>        -0.6068
     22 N4         22.3069    2.2509   50.3055 N.am      1 <0>        -0.4647
     23 C15        21.2389    1.3556   50.3236 C.2       1 <0>         0.7440
     24 O3         20.4118    1.2827   49.4164 O.2       1 <0>        -0.6448
     25 C16        22.2406    3.3430   49.3357 C.3       1 <0>         0.0414
     26 C17        22.2009    4.7480   49.8078 C.3       1 <0>        -0.1157
     27 C18        20.9880    4.1223   49.1865 C.3       1 <0>        -0.1157
     28 C19        24.8786    0.4649   52.2560 C.ar      1 <0>         0.0705
     29 C20        25.2169   -0.8563   51.9633 C.ar      1 <0>        -0.1519
     30 C21        26.4724   -1.3497   52.3181 C.ar      1 <0>        -0.0995
     31 C22        27.3895   -0.5220   52.9657 C.ar      1 <0>        -0.1479
     32 C23        27.0511    0.7992   53.2585 C.ar      1 <0>         0.0800
     33 C24        25.7956    1.2926   52.9037 C.ar      1 <0>        -0.1620
     34 N5         27.9693    1.6265   53.9060 N.am      1 <0>        -0.4750
     35 C25        29.2653    1.3112   54.3353 C.2       1 <0>         0.6678
     36 O4         29.8486    0.2380   54.2206 O.2       1 <0>        -0.5879
     37 C26        29.9374    2.4885   54.9962 C.3       1 <0>        -0.1760
     38 H1         14.4205   -0.7491   51.5030 H         1 <0>         0.1542
     39 H2         16.6710   -1.5543   50.9513 H         1 <0>         0.1533
     40 H3         16.0469    3.1549   52.3906 H         1 <0>         0.1649
     41 H4         19.0463   -0.4722   50.0933 H         1 <0>         0.4618
     42 H5         18.8983   -2.6830   52.9495 H         1 <0>         0.0697
     43 H6         17.9372   -1.1879   52.9229 H         1 <0>         0.0697
     44 H7         18.6871   -1.7349   54.4381 H         1 <0>         0.0697
     45 H8         23.9378   -0.8802   54.7203 H         1 <0>         0.0556
     46 H9         22.7081   -0.0473   55.6972 H         1 <0>         0.0556
     47 H10        23.8039    0.8916   54.6669 H         1 <0>         0.0556
     48 H11        22.8133    3.0961   48.4668 H         1 <0>         0.0960
     49 H12        22.1698    4.9597   50.8696 H         1 <0>         0.0824
     50 H13        22.7517    5.4731   49.2214 H         1 <0>         0.0824
     51 H14        20.1430    3.9142   49.8314 H         1 <0>         0.0824
     52 H15        20.7219    4.4260   48.1815 H         1 <0>         0.0824
     53 H16        24.5111   -1.5105   51.4579 H         1 <0>         0.1449
     54 H17        26.7360   -2.3783   52.0897 H         1 <0>         0.1419
     55 H18        28.3648   -0.9179   53.2378 H         1 <0>         0.1795
     56 H19        25.5318    2.3237   53.1312 H         1 <0>         0.1456
     57 H20        27.6630    2.5882   54.0936 H         1 <0>         0.3163
     58 H21        29.7280    2.4796   56.0696 H         1 <0>         0.0698
     59 H22        29.5563    3.4202   54.5685 H         1 <0>         0.0698
     60 H23        31.0181    2.4411   54.8333 H         1 <0>         0.0698
@<TRIPOS>BOND
     1    1    2 1
     2    2    8 ar
     3    2    3 ar
     4    3    4 ar
     5    4    5 ar
     6    5    6 ar
     7    6    7 1
     8    6    8 ar
     9    5    9 1
    10    9   10 1
    11   10   18 2
    12   10   11 1
    13   11   12 1
    14   11   13 am
    15   13   14 2
    16   13   15 1
    17   15   16 1
    18   15   17 2
    19   17   18 1
    20   18   23 1
    21   17   19 1
    22   19   20 am
    23   20   21 2
    24   20   22 am
    25   22   23 am
    26   23   24 2
    27   22   25 1
    28   25   27 1
    29   25   26 1
    30   26   27 1
    31   19   28 1
    32   28   33 ar
    33   28   29 ar
    34   29   30 ar
    35   30   31 ar
    36   31   32 ar
    37   32   33 ar
    38   32   34 1
    39   34   35 am
    40   35   36 2
    41   35   37 1
    42    3   38 1
    43    4   39 1
    44    8   40 1
    45    9   41 1
    46   12   42 1
    47   12   43 1
    48   12   44 1
    49   16   45 1
    50   16   46 1
    51   16   47 1
    52   25   48 1
    53   26   49 1
    54   26   50 1
    55   27   51 1
    56   27   52 1
    57   29   53 1
    58   30   54 1
    59   31   55 1
    60   33   56 1
    61   34   57 1
    62   37   58 1
    63   37   59 1
    64   37   60 1
@<TRIPOS>MOLECULE
Idelalisib
   49    53     0     0     0
SMALL
USER_CHARGES

@<TRIPOS>ATOM
      1 F1         15.5405   -0.6792   51.6134 F         1 <0>        -0.1096
      2 C1         16.4810   -1.2435   52.3839 C.ar      1 <0>         0.2036
      3 C2         16.1319   -2.3348   53.1782 C.ar      1 <0>        -0.1926
      4 C3         17.0893   -2.9408   53.9881 C.ar      1 <0>        -0.0669
      5 C4         18.3981   -2.4568   54.0025 C.ar      1 <0>        -0.1327
      6 C5         18.7620   -1.3623   53.2094 C.ar      1 <0>         0.2104
      7 C6         17.7955   -0.7622   52.4025 C.ar      1 <0>        -0.2284
      8 N1         20.0887   -0.9210   53.2325 N.2       1 <0>        -0.6332
      9 C7         20.4251    0.0925   52.4951 C.2       1 <0>         0.4896
     10 C8         21.8985    0.4456   52.4923 C.3       1 <0>         0.2120
     11 H1         21.9956    1.4658   52.8626 H         1 <0>         0.0659
     12 C9         22.4790    0.2750   51.0984 C.3       1 <0>        -0.0996
     13 C10        22.3422   -1.1563   50.5986 C.3       1 <0>        -0.0983
     14 N2         22.4758   -0.4500   53.4509 N.pl3     1 <0>        -0.7620
     15 C11        23.7779   -0.4600   53.7472 C.2       1 <0>         0.4503
     16 N3         24.4733   -1.6136   54.1597 N.pl3     1 <0>        -0.7088
     17 C12        25.8150   -1.5987   54.4591 C.2       1 <0>         0.5775
     18 N4         26.6061   -0.5687   54.4099 N.2       1 <0>        -0.5889
     19 C13        24.5689    0.6469   53.6809 C.2       1 <0>        -0.2057
     20 C14        25.9979    0.5924   54.0159 C.2       1 <0>         0.5759
     21 N5         24.2928    1.9392   53.3322 N.2       1 <0>        -0.5851
     22 C15        25.4444    2.5397   53.4592 C.2       1 <0>         0.5288
     23 N6         26.5259    1.7707   53.8737 N.2       1 <0>        -0.6493
     24 N7         19.5297    0.8072   51.6958 N.am      1 <0>        -0.3234
     25 C16        18.1800    0.4097   51.5880 C.2       1 <0>         0.7143
     26 O1         17.3076    0.9739   50.9317 O.2       1 <0>        -0.5808
     27 C17        19.9192    1.9947   50.9864 C.ar      1 <0>         0.0234
     28 C18        19.8193    2.0401   49.5958 C.ar      1 <0>        -0.1200
     29 C19        20.1960    3.1929   48.9068 C.ar      1 <0>        -0.1240
     30 C20        20.6728    4.3003   49.6083 C.ar      1 <0>        -0.1188
     31 C21        20.7728    4.2548   50.9989 C.ar      1 <0>        -0.1240
     32 C22        20.3960    3.1020   51.6879 C.ar      1 <0>        -0.1200
     33 H2         15.1141   -2.7131   53.1639 H         1 <0>         0.1583
     34 H3         16.8174   -3.7888   54.6099 H         1 <0>         0.1479
     35 H4         19.1346   -2.9384   54.6415 H         1 <0>         0.1663
     36 H5         21.9647    0.9429   50.3961 H         1 <0>         0.0600
     37 H6         23.5387    0.5601   51.0816 H         1 <0>         0.0600
     38 H7         22.7647   -1.2625   49.5943 H         1 <0>         0.0466
     39 H8         22.8768   -1.8409   51.2649 H         1 <0>         0.0466
     40 H9         21.2937   -1.4688   50.5667 H         1 <0>         0.0466
     41 H10        21.8838   -1.1252   53.9460 H         1 <0>         0.4968
     42 H11        23.9199   -2.4610   54.2220 H         1 <0>         0.4517
     43 H12        26.1963   -2.5860   54.7635 H         1 <0>         0.0606
     44 H13        25.5758    3.6126   53.2513 H         1 <0>         0.0611
     45 H14        19.4481    1.1834   49.0389 H         1 <0>         0.1467
     46 H15        20.1181    3.2290   47.8241 H         1 <0>         0.1417
     47 H16        20.9666    5.1977   49.0718 H         1 <0>         0.1408
     48 H17        21.1438    5.1175   51.5446 H         1 <0>         0.1417
     49 H18        20.4774    3.0789   52.7718 H         1 <0>         0.1467
@<TRIPOS>BOND
     1    1    2 1
     2    2    7 ar
     3    2    3 ar
     4    3    4 ar
     5    4    5 ar
     6    5    6 ar
     7    6    7 ar
     8    7   25 1
     9    6    8 1
    10    8    9 2
    11    9   10 1
    12   10   11 1
    13   10   12 1
    14   12   13 1
    15   10   14 1
    16   14   15 1
    17   15   16 1
    18   16   17 1
    19   17   18 2
    20   18   20 1
    21   15   19 2
    22   19   20 1
    23   20   23 2
    24   19   21 1
    25   21   22 2
    26   22   23 1
    27    9   24 1
    28   24   25 am
    29   25   26 2
    30   24   27 1
    31   27   32 ar
    32   27   28 ar
    33   28   29 ar
    34   29   30 ar
    35   30   31 ar
    36   31   32 ar
    37    3   33 1
    38    4   34 1
    39    5   35 1
    40   12   36 1
    41   12   37 1
    42   13   38 1
    43   13   39 1
    44   13   40 1
    45   14   41 1
    46   16   42 1
    47   17   43 1
    48   22   44 1
    49   28   45 1
    50   29   46 1
    51   30   47 1
    52   31   48 1
    53   32   49 1
@<TRIPOS>MOLECULE
Lenvatinib
   49    52     0     0     0
SMALL
USER_CHARGES

@<TRIPOS>ATOM
      1 O1         26.7960    1.3050   53.5395 O.2       1 <0>        -0.6084
      2 C1         26.3617    0.2033   53.2149 C.2       1 <0>         0.6831
      3 N1         27.0665   -0.6849   52.4321 N.am      1 <0>        -0.6618
      4 C2         25.0505   -0.2316   53.6753 C.ar      1 <0>        -0.1568
      5 C3         23.9292    0.0391   52.8963 C.ar      1 <0>        -0.0440
      6 C4         24.9022   -0.9114   54.8779 C.ar      1 <0>         0.1336
      7 O2         25.9813   -1.1911   55.6623 O.3       1 <0>        -0.3524
      8 C5         26.3398   -0.2180   56.6410 C.3       1 <0>         0.1108
      9 C6         23.6338   -1.3187   55.2986 C.ar      1 <0>        -0.1955
     10 C7         22.4954   -1.0611   54.5397 C.ar      1 <0>         0.4345
     11 C8         22.6535   -0.3707   53.3198 C.ar      1 <0>        -0.1758
     12 N2         21.2878   -1.4677   54.9747 N.ar      1 <0>        -0.6795
     13 C9         20.2072   -1.1975   54.2071 C.ar      1 <0>         0.4502
     14 C10        20.2622   -0.5290   53.0010 C.ar      1 <0>        -0.3309
     15 C11        21.5079   -0.1113   52.5553 C.ar      1 <0>         0.1747
     16 O3         21.5782    0.5511   51.3643 O.3       1 <0>        -0.2392
     17 C12        22.0901    1.8359   51.3757 C.ar      1 <0>         0.0381
     18 C13        21.6795    2.7420   52.3536 C.ar      1 <0>        -0.0930
     19 C14        22.1967    4.0373   52.3654 C.ar      1 <0>        -0.0478
     20 Cl1        21.6585    5.1284   53.5920 Cl        1 <0>        -0.0964
     21 C15        23.1245    4.4267   51.3994 C.ar      1 <0>         0.1121
     22 C16        23.5351    3.5207   50.4215 C.ar      1 <0>        -0.1540
     23 C17        23.0179    2.2253   50.4097 C.ar      1 <0>        -0.0904
     24 N3         23.6618    5.7173   51.3826 N.am      1 <0>        -0.4812
     25 C18        24.5988    6.2625   50.4844 C.2       1 <0>         0.7851
     26 O4         25.1168    5.6778   49.5360 O.2       1 <0>        -0.6076
     27 N4         24.8810    7.5935   50.8082 N.am      1 <0>        -0.5380
     28 C19        25.8093    8.4076   50.0579 C.3       1 <0>         0.0517
     29 C20        27.2705    8.3481   50.3483 C.3       1 <0>        -0.1434
     30 C21        26.4808    9.5731   50.7011 C.3       1 <0>        -0.1434
     31 H1         26.7235   -1.6037   52.1737 H         1 <0>         0.3151
     32 H2         27.9987   -0.4520   52.1054 H         1 <0>         0.3151
     33 H3         24.0552    0.5721   51.9557 H         1 <0>         0.1622
     34 H4         27.2122   -0.5711   57.1896 H         1 <0>         0.0503
     35 H5         25.4982   -0.0668   57.3163 H         1 <0>         0.0503
     36 H6         26.5766    0.7145   56.1302 H         1 <0>         0.0503
     37 H7         23.5368   -1.8505   56.2442 H         1 <0>         0.1672
     38 H8         19.2609   -1.5479   54.6060 H         1 <0>         0.0268
     39 H9         19.3615   -0.3403   52.4277 H         1 <0>         0.1608
     40 H10        20.9550    2.4284   53.1016 H         1 <0>         0.1659
     41 H11        24.2575    3.8113   49.6628 H         1 <0>         0.1899
     42 H12        23.3428    1.5231   49.6468 H         1 <0>         0.1601
     43 H13        23.3382    6.3575   52.1136 H         1 <0>         0.3253
     44 H14        24.4117    8.0069   51.6078 H         1 <0>         0.3038
     45 H15        25.4954    8.5001   49.0337 H         1 <0>         0.1090
     46 H16        27.6250    7.7266   51.1615 H         1 <0>         0.0784
     47 H17        27.9440    8.4077   49.5022 H         1 <0>         0.0784
     48 H18        26.3056    9.7736   51.7510 H         1 <0>         0.0784
     49 H19        26.6225   10.4578   50.0925 H         1 <0>         0.0784
@<TRIPOS>BOND
     1    1    2 2
     2    2    3 am
     3    2    4 1
     4    4    5 ar
     5    5   11 ar
     6    4    6 ar
     7    6    7 1
     8    7    8 1
     9    6    9 ar
    10    9   10 ar
    11   10   11 ar
    12   11   15 ar
    13   10   12 ar
    14   12   13 ar
    15   13   14 ar
    16   14   15 ar
    17   15   16 1
    18   16   17 1
    19   17   23 ar
    20   17   18 ar
    21   18   19 ar
    22   19   20 1
    23   19   21 ar
    24   21   22 ar
    25   22   23 ar
    26   21   24 1
    27   24   25 am
    28   25   26 2
    29   25   27 am
    30   27   28 1
    31   28   30 1
    32   28   29 1
    33   29   30 1
    34    3   31 1
    35    3   32 1
    36    5   33 1
    37    8   34 1
    38    8   35 1
    39    8   36 1
    40    9   37 1
    41   13   38 1
    42   14   39 1
    43   18   40 1
    44   22   41 1
    45   23   42 1
    46   24   43 1
    47   27   44 1
    48   28   45 1
    49   29   46 1
    50   29   47 1
    51   30   48 1
    52   30   49 1
@<TRIPOS>MOLECULE
Palbociclib
   62    66     0     0     0
SMALL
USER_CHARGES

@<TRIPOS>ATOM
      1 C1         21.0162    2.5532   51.0747 C.3       1 <0>        -0.0857
      2 C2         22.1776    2.9334   50.1601 C.3       1 <0>        -0.0759
      3 C3         22.4919    1.6833   49.3336 C.3       1 <0>        -0.0759
      4 C4         21.5026    0.6151   49.7921 C.3       1 <0>        -0.0857
      5 C5         21.1458    1.0409   51.2112 C.3       1 <0>         0.0994
      6 N1         19.9293    0.4145   51.6964 N.am      1 <0>        -0.4132
      7 C6         18.7273    0.6136   51.0306 C.2       1 <0>         0.7237
      8 O1         18.6132    1.3127   50.0216 O.2       1 <0>        -0.6209
      9 C7         17.5078   -0.0680   51.5851 C.2       1 <0>        -0.3001
     10 C8         16.2204    0.1502   50.8931 C.2       1 <0>         0.6022
     11 O2         15.6058   -0.8013   50.4224 O.2       1 <0>        -0.5130
     12 C9         15.7078    1.5591   50.8037 C.3       1 <0>        -0.1923
     13 C10        17.5807   -0.8537   52.6800 C.2       1 <0>         0.1025
     14 C11        16.4293   -1.6262   53.2808 C.3       1 <0>        -0.0840
     15 C12        18.8876   -1.0005   53.3603 C.ar      1 <0>        -0.4197
     16 C13        20.0317   -0.3837   52.8691 C.ar      1 <0>         0.6302
     17 C14        19.0806   -1.7439   54.5229 C.ar      1 <0>         0.5126
     18 N2         20.2629   -1.8954   55.1566 N.ar      1 <0>        -0.7253
     19 C15        21.2908   -1.2601   54.5819 C.ar      1 <0>         0.9492
     20 N3         21.2439   -0.5086   53.4701 N.ar      1 <0>        -0.8283
     21 N4         22.5496   -1.3906   55.2068 N.pl3     1 <0>        -0.8478
     22 C16        23.8242   -0.8791   54.8981 C.ar      1 <0>         0.6043
     23 C17        24.8653   -1.2168   55.7478 C.ar      1 <0>        -0.2250
     24 C18        26.1308   -0.7204   55.4555 C.ar      1 <0>        -0.1369
     25 C19        26.3139    0.0868   54.3383 C.ar      1 <0>         0.0154
     26 C20        25.2080    0.3660   53.5516 C.ar      1 <0>         0.3999
     27 N5         23.9635   -0.0978   53.8036 N.ar      1 <0>        -0.6386
     28 N6         27.5758    0.6002   54.0179 N.pl3     1 <0>        -0.6375
     29 C21        28.6658   -0.3521   53.7658 C.3       1 <0>         0.1858
     30 C22        30.0226    0.3282   53.9439 C.3       1 <0>         0.1581
     31 N7         30.1217    1.5411   53.1335 N.3       1 <0>        -0.8179
     32 C23        29.0745    2.4873   53.5146 C.3       1 <0>         0.1581
     33 C24        27.6820    1.8873   53.3220 C.3       1 <0>         0.1858
     34 H1         20.0677    2.8238   50.5936 H         1 <0>         0.0555
     35 H2         21.0677    3.0686   52.0387 H         1 <0>         0.0555
     36 H3         21.9218    3.7880   49.5256 H         1 <0>         0.0407
     37 H4         23.0548    3.2154   50.7538 H         1 <0>         0.0407
     38 H5         22.4047    1.8726   48.2589 H         1 <0>         0.0407
     39 H6         23.5209    1.3596   49.5283 H         1 <0>         0.0407
     40 H7         20.6189    0.6328   49.1417 H         1 <0>         0.0555
     41 H8         21.9350   -0.3893   49.7504 H         1 <0>         0.0555
     42 H9         21.9558    0.7848   51.9009 H         1 <0>         0.0955
     43 H10        16.0648    2.0597   49.8997 H         1 <0>         0.0663
     44 H11        16.0524    2.1219   51.6751 H         1 <0>         0.0663
     45 H12        14.6149    1.5406   50.7770 H         1 <0>         0.0663
     46 H13        16.3917   -2.6104   52.8281 H         1 <0>         0.0614
     47 H14        15.5067   -1.0907   53.0871 H         1 <0>         0.0614
     48 H15        16.5839   -1.7129   54.3505 H         1 <0>         0.0614
     49 H16        18.2683   -2.2682   55.0165 H         1 <0>         0.0321
     50 H17        22.5298   -1.9675   56.0421 H         1 <0>         0.4696
     51 H18        24.7135   -1.8479   56.6172 H         1 <0>         0.1506
     52 H19        26.9669   -0.9680   56.1041 H         1 <0>         0.1441
     53 H20        25.2882    0.9901   52.6666 H         1 <0>         0.0346
     54 H21        28.5983   -1.2023   54.4591 H         1 <0>         0.0452
     55 H22        28.5786   -0.7538   52.7450 H         1 <0>         0.0452
     56 H23        30.1956    0.5614   55.0022 H         1 <0>         0.0388
     57 H24        30.8131   -0.3664   53.6387 H         1 <0>         0.0388
     58 H25        31.0344    1.9708   53.2821 H         1 <0>         0.3662
     59 H26        29.2110    2.8082   54.5550 H         1 <0>         0.0388
     60 H27        29.1649    3.3842   52.8918 H         1 <0>         0.0388
     61 H28        26.9328    2.5934   53.7071 H         1 <0>         0.0452
     62 H29        27.4794    1.7477   52.2493 H         1 <0>         0.0452
@<TRIPOS>BOND
     1    1    5 1
     2    1    2 1
     3    2    3 1
     4    3    4 1
     5    4    5 1
     6    5    6 1
     7    6   16 1
     8    6    7 am
     9    7    8 2
    10    7    9 1
    11    9   10 1
    12   10   11 2
    13   10   12 1
    14    9   13 2
    15   13   14 1
    16   13   15 1
    17   15   16 ar
    18   16   20 ar
    19   15   17 ar
    20   17   18 ar
    21   18   19 ar
    22   19   20 ar
    23   19   21 1
    24   21   22 1
    25   22   27 ar
    26   22   23 ar
    27   23   24 ar
    28   24   25 ar
    29   25   26 ar
    30   26   27 ar
    31   25   28 1
    32   28   33 1
    33   28   29 1
    34   29   30 1
    35   30   31 1
    36   31   32 1
    37   32   33 1
    38    1   34 1
    39    1   35 1
    40    2   36 1
    41    2   37 1
    42    3   38 1
    43    3   39 1
    44    4   40 1
    45    4   41 1
    46    5   42 1
    47   12   43 1
    48   12   44 1
    49   12   45 1
    50   14   46 1
    51   14   47 1
    52   14   48 1
    53   17   49 1
    54   21   50 1
    55   23   51 1
    56   24   52 1
    57   26   53 1
    58   29   54 1
    59   29   55 1
    60   30   56 1
    61   30   57 1
    62   31   58 1
    63   32   59 1
    64   32   60 1
    65   33   61 1
    66   33   62 1
@<TRIPOS>MOLECULE
Cobimetinib
   51    54     0     0     0
SMALL
USER_CHARGES

@<TRIPOS>ATOM
      1 N1         29.3320    0.8789   54.1964 N.3       1 <0>        -0.8109
      2 C1         30.3391   -0.1817   54.1564 C.3       1 <0>         0.1601
      3 C2         29.6966   -1.5559   53.9840 C.3       1 <0>        -0.0887
      4 C3         28.8057   -1.5977   52.7472 C.3       1 <0>        -0.0777
      5 C4         27.8097   -0.4414   52.7646 C.3       1 <0>        -0.0806
      6 C5         28.5213    0.9026   52.9725 C.3       1 <0>         0.1766
      7 H1         29.1838    1.1013   52.1118 H         1 <0>         0.0285
      8 C6         27.5061    2.0355   53.0690 C.3       1 <0>         0.1194
      9 O1         28.1720    3.2440   53.4925 O.3       1 <0>        -0.5749
     10 C7         26.2246    1.6837   53.8583 C.3       1 <0>         0.0647
     11 N2         25.5482    1.5885   52.5793 N.am      1 <0>        -0.4628
     12 C8         26.6205    2.1965   51.8139 C.3       1 <0>         0.0647
     13 C9         24.3837    1.0069   52.1496 C.2       1 <0>         0.6628
     14 O2         23.9733    1.0391   50.9920 O.2       1 <0>        -0.5850
     15 C10        23.5905    0.2752   53.1547 C.ar      1 <0>        -0.1825
     16 C11        22.2807    0.6473   53.4572 C.ar      1 <0>         0.1954
     17 C12        21.5563   -0.0650   54.4130 C.ar      1 <0>         0.0504
     18 F1         20.2967    0.2831   54.7122 F         1 <0>        -0.1149
     19 C13        22.1419   -1.1494   55.0664 C.ar      1 <0>         0.1382
     20 F2         21.4464   -1.8336   55.9843 F         1 <0>        -0.1194
     21 C14        23.4518   -1.5215   54.7639 C.ar      1 <0>        -0.1806
     22 C15        24.1761   -0.8091   53.8081 C.ar      1 <0>        -0.0694
     23 N3         21.6714    1.7428   52.8056 N.pl3     1 <0>        -0.6208
     24 C16        20.5237    1.8520   51.9994 C.ar      1 <0>         0.1371
     25 C17        20.1164    0.7750   51.2121 C.ar      1 <0>         0.0911
     26 F3         20.8117   -0.3713   51.2153 F         1 <0>        -0.1344
     27 C18        18.9780    0.8858   50.4137 C.ar      1 <0>        -0.1083
     28 C19        18.2469    2.0737   50.4025 C.ar      1 <0>         0.0207
     29 I1         16.5516    2.2388   49.2132 I         1 <0>        -0.1308
     30 C20        18.6543    3.1507   51.1898 C.ar      1 <0>        -0.0834
     31 C21        19.7927    3.0399   51.9882 C.ar      1 <0>        -0.1407
     32 H2         29.8016    1.7774   54.3080 H         1 <0>         0.3678
     33 H3         31.0535    0.0074   53.3456 H         1 <0>         0.0399
     34 H4         30.9070   -0.1665   55.0931 H         1 <0>         0.0399
     35 H5         30.4752   -2.3229   53.9057 H         1 <0>         0.0486
     36 H6         29.0987   -1.7964   54.8723 H         1 <0>         0.0486
     37 H7         29.4274   -1.5304   51.8458 H         1 <0>         0.0454
     38 H8         28.2720   -2.5533   52.6999 H         1 <0>         0.0454
     39 H9         27.2468   -0.4275   51.8235 H         1 <0>         0.0487
     40 H10        27.0746   -0.6076   53.5636 H         1 <0>         0.0487
     41 H11        28.5552    3.0409   54.3548 H         1 <0>         0.4044
     42 H12        26.2509    0.7456   54.4190 H         1 <0>         0.0750
     43 H13        25.8270    2.4847   54.4885 H         1 <0>         0.0750
     44 H14        26.9157    1.6168   50.9354 H         1 <0>         0.0750
     45 H15        26.3976    3.2272   51.5229 H         1 <0>         0.0750
     46 H16        23.9072   -2.3658   55.2729 H         1 <0>         0.1603
     47 H17        25.1961   -1.1090   53.5813 H         1 <0>         0.1459
     48 H18        22.1599    2.6208   52.9484 H         1 <0>         0.4493
     49 H19        18.6786    0.0343   49.8081 H         1 <0>         0.1620
     50 H20        18.0992    4.0854   51.1959 H         1 <0>         0.1512
     51 H21        20.1012    3.8854   52.5978 H         1 <0>         0.1501
@<TRIPOS>BOND
     1    1    6 1
     2    1    2 1
     3    2    3 1
     4    3    4 1
     5    4    5 1
     6    5    6 1
     7    6    7 1
     8    6    8 1
     9    8   12 1
    10    8    9 1
    11    8   10 1
    12   10   11 1
    13   11   12 1
    14   11   13 am
    15   13   14 2
    16   13   15 1
    17   15   22 ar
    18   15   16 ar
    19   16   17 ar
    20   17   18 1
    21   17   19 ar
    22   19   20 1
    23   19   21 ar
    24   21   22 ar
    25   16   23 1
    26   23   24 1
    27   24   31 ar
    28   24   25 ar
    29   25   26 1
    30   25   27 ar
    31   27   28 ar
    32   28   29 1
    33   28   30 ar
    34   30   31 ar
    35    1   32 1
    36    2   33 1
    37    2   34 1
    38    3   35 1
    39    3   36 1
    40    4   37 1
    41    4   38 1
    42    5   39 1
    43    5   40 1
    44    9   41 1
    45   10   42 1
    46   10   43 1
    47   12   44 1
    48   12   45 1
    49   21   46 1
    50   22   47 1
    51   23   48 1
    52   27   49 1
    53   30   50 1
    54   31   51 1
@<TRIPOS>MOLECULE
Osimertinib
   70    73     0     0     0
SMALL
USER_CHARGES

@<TRIPOS>ATOM
      1 C1         27.9305    1.7539   51.9293 C.ar      1 <0>        -0.1403
      2 C2         28.8089    1.7051   53.0155 C.ar      1 <0>        -0.1154
      3 C3         28.4217    1.1375   54.2279 C.ar      1 <0>        -0.1518
      4 C4         27.1396    0.6000   54.3901 C.ar      1 <0>        -0.0870
      5 C5         26.2367    0.6379   53.3090 C.ar      1 <0>        -0.0637
      6 C6         26.6521    1.2128   52.1060 C.ar      1 <0>         0.0779
      7 C7         24.8957    0.2002   53.1216 C.2       1 <0>        -0.2343
      8 C8         24.5297    0.5122   51.8325 C.2       1 <0>         0.0586
      9 N1         25.5958    1.1225   51.2279 N.pl3     1 <0>        -0.4890
     10 C9         25.5956    1.5981   49.8612 C.3       1 <0>         0.2077
     11 C10        24.0038   -0.4533   54.0362 C.ar      1 <0>         0.5708
     12 N2         22.6905   -0.2017   53.8566 N.ar      1 <0>        -0.7534
     13 C11        21.8690   -0.8238   54.7236 C.ar      1 <0>         0.8802
     14 N3         22.2253   -1.6504   55.7253 N.ar      1 <0>        -0.7298
     15 C12        23.5528   -1.8577   55.8474 C.ar      1 <0>         0.4605
     16 C13        24.4979   -1.2806   55.0240 C.ar      1 <0>        -0.4057
     17 N4         20.4866   -0.5837   54.5653 N.pl3     1 <0>        -0.7288
     18 C14        19.7545    0.2012   53.6551 C.ar      1 <0>         0.1853
     19 C15        18.4614   -0.1655   53.2822 C.ar      1 <0>         0.0067
     20 O1         17.8786   -1.2883   53.7896 O.3       1 <0>        -0.3476
     21 C16        18.0726   -2.5017   53.0664 C.3       1 <0>         0.1130
     22 C17        17.7468    0.6207   52.3784 C.ar      1 <0>        -0.1086
     23 C18        18.3253    1.7736   51.8474 C.ar      1 <0>         0.0467
     24 C19        19.6185    2.1402   52.2202 C.ar      1 <0>         0.1089
     25 C20        20.3331    1.3539   53.1241 C.ar      1 <0>        -0.1689
     26 N5         20.2176    3.2919   51.7022 N.am      1 <0>        -0.4596
     27 C21        21.4965    3.7934   51.9731 C.2       1 <0>         0.6614
     28 O2         22.3377    3.3120   52.7228 O.2       1 <0>        -0.5879
     29 C22        21.7630    5.0518   51.2177 C.2       1 <0>        -0.2408
     30 C23        22.5797    5.9847   51.7172 C.2       1 <0>        -0.1315
     31 N6         17.5830    2.5547   50.9337 N.pl3     1 <0>        -0.7089
     32 C24        17.2762    3.9377   51.2342 C.3       1 <0>         0.2013
     33 C25        17.1331    1.9846   49.6807 C.3       1 <0>         0.2087
     34 C26        18.1530    2.1763   48.5760 C.3       1 <0>         0.1397
     35 N7         19.4123    1.5563   48.8878 N.3       1 <0>        -0.7444
     36 C27        20.5033    2.1237   48.0802 C.3       1 <0>         0.1613
     37 C28        19.3573    0.1003   48.6844 C.3       1 <0>         0.1613
     38 H1         28.2374    2.1970   50.9878 H         1 <0>         0.1277
     39 H2         29.8097    2.1167   52.9119 H         1 <0>         0.1328
     40 H3         29.1224    1.1112   55.0582 H         1 <0>         0.1296
     41 H4         26.8535    0.1614   55.3419 H         1 <0>         0.1378
     42 H5         23.6046    0.3533   51.2931 H         1 <0>         0.1764
     43 H6         25.2484    2.6356   49.8623 H         1 <0>         0.0509
     44 H7         26.6085    1.5366   49.4512 H         1 <0>         0.0509
     45 H8         24.9289    0.9736   49.2584 H         1 <0>         0.0509
     46 H9         23.8457   -2.5229   56.6527 H         1 <0>         0.0289
     47 H10        25.5551   -1.4742   55.1577 H         1 <0>         0.1592
     48 H11        19.9103   -1.0738   55.2422 H         1 <0>         0.4672
     49 H12        17.5553   -3.3095   53.5828 H         1 <0>         0.0389
     50 H13        19.1402   -2.7102   53.0023 H         1 <0>         0.0389
     51 H14        17.6592   -2.3776   52.0662 H         1 <0>         0.0389
     52 H15        16.7390    0.3302   52.0908 H         1 <0>         0.1444
     53 H16        21.3417    1.6395   53.4159 H         1 <0>         0.2004
     54 H17        19.6509    3.8364   51.0426 H         1 <0>         0.3317
     55 H18        21.2867    5.2061   50.2556 H         1 <0>         0.1317
     56 H19        22.7970    6.9111   51.1973 H         1 <0>         0.1300
     57 H20        23.0556    5.8297   52.6799 H         1 <0>         0.1300
     58 H21        16.7013    4.3700   50.4160 H         1 <0>         0.0297
     59 H22        18.2011    4.4996   51.3612 H         1 <0>         0.0297
     60 H23        16.6933    3.9931   52.1532 H         1 <0>         0.0297
     61 H24        16.9304    0.9283   49.8677 H         1 <0>         0.0549
     62 H25        16.1971    2.4866   49.4287 H         1 <0>         0.0549
     63 H26        17.7902    1.7190   47.6504 H         1 <0>         0.0344
     64 H27        18.3464    3.2371   48.3865 H         1 <0>         0.0344
     65 H28        21.4244    1.6255   48.3519 H         1 <0>         0.0304
     66 H29        20.5707    3.1834   48.2890 H         1 <0>         0.0304
     67 H30        20.2786    1.9594   47.0345 H         1 <0>         0.0304
     68 H31        20.3248   -0.3160   48.9316 H         1 <0>         0.0304
     69 H32        19.1161   -0.0933   47.6474 H         1 <0>         0.0304
     70 H33        18.5930   -0.3088   49.3318 H         1 <0>         0.0304
@<TRIPOS>BOND
     1    1    6 ar
     2    1    2 ar
     3    2    3 ar
     4    3    4 ar
     5    4    5 ar
     6    5    6 ar
     7    6    9 1
     8    5    7 1
     9    7    8 2
    10    8    9 1
    11    9   10 1
    12    7   11 1
    13   11   16 ar
    14   11   12 ar
    15   12   13 ar
    16   13   14 ar
    17   14   15 ar
    18   15   16 ar
    19   13   17 1
    20   17   18 1
    21   18   25 ar
    22   18   19 ar
    23   19   20 1
    24   20   21 1
    25   19   22 ar
    26   22   23 ar
    27   23   24 ar
    28   24   25 ar
    29   24   26 1
    30   26   27 am
    31   27   28 2
    32   27   29 1
    33   29   30 2
    34   23   31 1
    35   31   32 1
    36   31   33 1
    37   33   34 1
    38   34   35 1
    39   35   36 1
    40   35   37 1
    41    1   38 1
    42    2   39 1
    43    3   40 1
    44    4   41 1
    45    8   42 1
    46   10   43 1
    47   10   44 1
    48   10   45 1
    49   15   46 1
    50   16   47 1
    51   17   48 1
    52   21   49 1
    53   21   50 1
    54   21   51 1
    55   22   52 1
    56   25   53 1
    57   26   54 1
    58   29   55 1
    59   30   56 1
    60   30   57 1
    61   32   58 1
    62   32   59 1
    63   32   60 1
    64   33   61 1
    65   33   62 1
    66   34   63 1
    67   34   64 1
    68   36   65 1
    69   36   66 1
    70   36   67 1
    71   37   68 1
    72   37   69 1
    73   37   70 1
@<TRIPOS>MOLECULE
Alectinib
   70    75     0     0     0
SMALL
USER_CHARGES

@<TRIPOS>ATOM
      1 C1         13.4341    1.6258   50.2240 C.3       1 <0>         0.1305
      2 C2         13.1655    3.0256   49.6790 C.3       1 <0>         0.1237
      3 O1         12.3653    3.7715   50.5970 O.3       1 <0>        -0.4138
      4 C3         13.0223    3.8947   51.8590 C.3       1 <0>         0.1237
      5 C4         13.2885    2.5161   52.4567 C.3       1 <0>         0.1305
      6 N1         14.1032    1.7189   51.5290 N.3       1 <0>        -0.7244
      7 C5         14.3577    0.4041   52.0699 C.3       1 <0>         0.1915
      8 C6         14.9661    0.4796   53.4730 C.3       1 <0>        -0.0894
      9 C7         16.4220    0.9463   53.4547 C.3       1 <0>         0.2375
     10 N2         17.2090    0.1245   52.5277 N.pl3     1 <0>        -0.7510
     11 C8         16.7092    0.0666   51.1508 C.3       1 <0>         0.2375
     12 C9         15.2552   -0.4119   51.1375 C.3       1 <0>        -0.0894
     13 C10        18.5115   -0.2039   52.8304 C.ar      1 <0>         0.1830
     14 C11        18.8065   -1.3608   53.5412 C.ar      1 <0>        -0.0794
     15 C12        20.1307   -1.6757   53.8371 C.ar      1 <0>        -0.0779
     16 C13        17.7248   -2.2845   53.9987 C.3       1 <0>        -0.0322
     17 C14        17.4076   -3.3600   52.9645 C.3       1 <0>        -0.0859
     18 C15        19.5409    0.6417   52.4132 C.ar      1 <0>        -0.1635
     19 C16        20.8913    0.3526   52.6960 C.ar      1 <0>        -0.0331
     20 C17        21.1721   -0.8307   53.4213 C.ar      1 <0>        -0.1564
     21 C18        21.9974    1.3161   52.2152 C.3       1 <0>         0.0432
     22 C19        21.7781    2.7108   52.8425 C.3       1 <0>        -0.0884
     23 C20        21.9564    1.4243   50.6745 C.3       1 <0>        -0.0884
     24 C21        23.3516    0.8028   52.6314 C.2       1 <0>         0.1331
     25 C22        23.6232   -0.3477   53.3365 C.2       1 <0>        -0.2264
     26 C23        22.5670   -1.2309   53.7737 C.2       1 <0>         0.6190
     27 O2         22.7889   -2.2588   54.4010 O.2       1 <0>        -0.5486
     28 C24        25.0375   -0.4317   53.5029 C.ar      1 <0>        -0.0227
     29 C25        25.5872    0.6926   52.8812 C.ar      1 <0>         0.0593
     30 N3         24.5433    1.4234   52.3613 N.pl3     1 <0>        -0.5642
     31 C26        26.9639    0.9426   52.8466 C.ar      1 <0>        -0.0993
     32 C27        27.8068    0.0164   53.4657 C.ar      1 <0>        -0.0089
     33 C28        29.2199    0.2346   53.4529 C.1       1 <0>         0.2360
     34 N4         30.3673    0.4117   53.4425 N.1       1 <0>        -0.3691
     35 C29        27.2906   -1.1143   54.0935 C.ar      1 <0>        -0.1136
     36 C30        25.9113   -1.3513   54.1205 C.ar      1 <0>        -0.0825
     37 H1         14.0647    1.0822   49.5112 H         1 <0>         0.0419
     38 H2         12.4844    1.0836   50.3212 H         1 <0>         0.0419
     39 H3         14.0974    3.5692   49.4804 H         1 <0>         0.0538
     40 H4         12.6143    2.9591   48.7356 H         1 <0>         0.0538
     41 H5         13.9494    4.4672   51.7350 H         1 <0>         0.0538
     42 H6         12.3655    4.4669   52.5222 H         1 <0>         0.0538
     43 H7         13.8103    2.6370   53.4129 H         1 <0>         0.0419
     44 H8         12.3326    2.0127   52.6517 H         1 <0>         0.0419
     45 H9         13.3849   -0.1108   52.1451 H         1 <0>         0.0163
     46 H10        14.3746    1.1437   54.1152 H         1 <0>         0.0551
     47 H11        14.9186   -0.5155   53.9350 H         1 <0>         0.0551
     48 H12        16.4863    2.0042   53.1706 H         1 <0>         0.0327
     49 H13        16.8251    0.8585   54.4718 H         1 <0>         0.0327
     50 H14        16.7978    1.0501   50.6725 H         1 <0>         0.0327
     51 H15        17.3093   -0.6371   50.5599 H         1 <0>         0.0327
     52 H16        14.8693   -0.3848   50.1109 H         1 <0>         0.0551
     53 H17        15.2267   -1.4650   51.4475 H         1 <0>         0.0551
     54 H18        20.3421   -2.5855   54.3951 H         1 <0>         0.1622
     55 H19        18.0106   -2.7666   54.9462 H         1 <0>         0.0514
     56 H20        16.8085   -1.7169   54.2232 H         1 <0>         0.0514
     57 H21        16.6132   -4.0254   53.3194 H         1 <0>         0.0370
     58 H22        18.2930   -3.9693   52.7577 H         1 <0>         0.0370
     59 H23        17.0754   -2.9133   52.0213 H         1 <0>         0.0370
     60 H24        19.2827    1.5419   51.8587 H         1 <0>         0.1366
     61 H25        22.5590    3.3776   52.4986 H         1 <0>         0.0465
     62 H26        21.8164    2.6210   53.9210 H         1 <0>         0.0465
     63 H27        20.8095    3.0856   52.5360 H         1 <0>         0.0465
     64 H28        22.7358    2.1020   50.3490 H         1 <0>         0.0465
     65 H29        20.9873    1.8031   50.3746 H         1 <0>         0.0465
     66 H30        22.1182    0.4418   50.2489 H         1 <0>         0.0465
     67 H31        24.6456    2.2911   51.8534 H         1 <0>         0.4598
     68 H32        27.3537    1.8283   52.3533 H         1 <0>         0.1451
     69 H33        27.9524   -1.8323   54.5736 H         1 <0>         0.1463
     70 H34        25.5288   -2.2395   54.6151 H         1 <0>         0.1661
@<TRIPOS>BOND
     1    1    6 1
     2    1    2 1
     3    2    3 1
     4    3    4 1
     5    4    5 1
     6    5    6 1
     7    6    7 1
     8    7   12 1
     9    7    8 1
    10    8    9 1
    11    9   10 1
    12   10   11 1
    13   11   12 1
    14   10   13 1
    15   13   14 ar
    16   14   15 ar
    17   15   20 ar
    18   14   16 1
    19   16   17 1
    20   13   18 ar
    21   18   19 ar
    22   19   20 ar
    23   20   26 1
    24   19   21 1
    25   21   22 1
    26   21   23 1
    27   21   24 1
    28   24   30 1
    29   24   25 2
    30   25   26 1
    31   26   27 2
    32   25   28 1
    33   28   36 ar
    34   28   29 ar
    35   29   30 1
    36   29   31 ar
    37   31   32 ar
    38   32   33 1
    39   33   34 3
    40   32   35 ar
    41   35   36 ar
    42    1   37 1
    43    1   38 1
    44    2   39 1
    45    2   40 1
    46    4   41 1
    47    4   42 1
    48    5   43 1
    49    5   44 1
    50    7   45 1
    51    8   46 1
    52    8   47 1
    53    9   48 1
    54    9   49 1
    55   11   50 1
    56   11   51 1
    57   12   52 1
    58   12   53 1
    59   15   54 1
    60   16   55 1
    61   16   56 1
    62   17   57 1
    63   17   58 1
    64   17   59 1
    65   18   60 1
    66   22   61 1
    67   22   62 1
    68   22   63 1
    69   23   64 1
    70   23   65 1
    71   23   66 1
    72   30   67 1
    73   31   68 1
    74   35   69 1
    75   36   70 1
@<TRIPOS>MOLECULE
Brigatinib
   79    83     0     0     0
SMALL
USER_CHARGES

@<TRIPOS>ATOM
      1 C1         11.1388    2.0404   53.5114 C.3       1 <0>         0.1501
      2 N1         12.4965    1.7294   53.0685 N.3       1 <0>        -0.7213
      3 C2         12.4761    1.0192   51.7838 C.3       1 <0>         0.1628
      4 C3         13.8991    0.6899   51.3198 C.3       1 <0>         0.1693
      5 N2         14.6079   -0.1030   52.3317 N.3       1 <0>        -0.7317
      6 C4         14.6293    0.6075   53.6162 C.3       1 <0>         0.1693
      7 C5         13.2067    0.9381   54.0806 C.3       1 <0>         0.1628
      8 C6         15.9471   -0.4118   51.8948 C.3       1 <0>         0.1924
      9 C7         16.4815   -1.6468   52.6214 C.3       1 <0>        -0.0893
     10 C8         17.9244   -1.9583   52.2221 C.3       1 <0>         0.2280
     11 N3         18.7664   -0.7710   52.4005 N.pl3     1 <0>        -0.7184
     12 C9         18.3120    0.4389   51.7042 C.3       1 <0>         0.2280
     13 C10        16.8822    0.7786   52.1173 C.3       1 <0>        -0.0893
     14 C11        20.0721   -0.8764   52.8244 C.ar      1 <0>         0.1694
     15 C12        20.3598   -1.4551   54.0605 C.ar      1 <0>        -0.1752
     16 C13        21.6827   -1.5621   54.4896 C.ar      1 <0>         0.0658
     17 O1         21.9435   -2.1288   55.7015 O.3       1 <0>        -0.3549
     18 C14        22.1564   -3.5385   55.7246 C.3       1 <0>         0.1154
     19 C15        22.7180   -1.0903   53.6825 C.ar      1 <0>         0.1127
     20 C16        22.4303   -0.5116   52.4464 C.ar      1 <0>        -0.0967
     21 C17        21.1074   -0.4046   52.0174 C.ar      1 <0>        -0.1492
     22 N4         24.0616   -1.1903   54.1048 N.pl3     1 <0>        -0.7052
     23 C18        25.2001   -0.4023   53.8528 C.ar      1 <0>         0.9067
     24 N5         26.3482   -0.8014   54.4326 N.ar      1 <0>        -0.7574
     25 C19        27.4189   -0.0235   54.1702 C.ar      1 <0>         0.4921
     26 C20        27.3722    1.1015   53.3723 C.ar      1 <0>        -0.3327
     27 Cl1        28.7897    2.0284   53.0968 Cl        1 <0>        -0.0462
     28 C21        26.1364    1.4031   52.8374 C.ar      1 <0>         0.7229
     29 N6         25.0252    0.6703   53.0575 N.ar      1 <0>        -0.7941
     30 N7         26.0125    2.5444   52.0076 N.pl3     1 <0>        -0.7838
     31 C22        24.9206    3.1077   51.3276 C.ar      1 <0>         0.2448
     32 C23        23.6365    2.9592   51.8519 C.ar      1 <0>        -0.1590
     33 C24        22.5431    3.5132   51.1864 C.ar      1 <0>        -0.0582
     34 C25        22.7336    4.2158   49.9965 C.ar      1 <0>        -0.1723
     35 C26        24.0177    4.3643   49.4722 C.ar      1 <0>        -0.0289
     36 C27        25.1111    3.8102   50.1378 C.ar      1 <0>        -0.4912
     37 P1         26.7257    4.0190   49.4422 P.3       1 <0>         1.5037
     38 O2         27.7268    4.7394   50.3044 O.2       1 <0>        -0.9133
     39 C28        26.5701    4.8581   47.8616 C.3       1 <0>        -0.4621
     40 C29        27.3699    2.4064   48.9821 C.3       1 <0>        -0.4621
     41 H1         10.6208    2.6292   52.7499 H         1 <0>         0.0316
     42 H2         11.1668    2.6145   54.4415 H         1 <0>         0.0316
     43 H3         10.5775    1.1184   53.6854 H         1 <0>         0.0316
     44 H4         11.8881    0.0942   51.8566 H         1 <0>         0.0376
     45 H5         12.0016    1.6479   51.0205 H         1 <0>         0.0376
     46 H6         13.8334    0.1223   50.3835 H         1 <0>         0.0374
     47 H7         14.4407    1.6202   51.1004 H         1 <0>         0.0374
     48 H8         15.1037   -0.0212   54.3795 H         1 <0>         0.0374
     49 H9         15.2179    1.5322   53.5428 H         1 <0>         0.0374
     50 H10        12.6654    0.0081   54.3016 H         1 <0>         0.0376
     51 H11        13.2730    1.5067   55.0162 H         1 <0>         0.0376
     52 H12        15.9090   -0.6290   50.8231 H         1 <0>         0.0193
     53 H13        16.4203   -1.5143   53.7057 H         1 <0>         0.0558
     54 H14        15.8523   -2.5091   52.3756 H         1 <0>         0.0558
     55 H15        18.3178   -2.7943   52.8132 H         1 <0>         0.0361
     56 H16        17.9310   -2.2717   51.1707 H         1 <0>         0.0361
     57 H17        18.9892    1.2756   51.9190 H         1 <0>         0.0361
     58 H18        18.3308    0.2776   50.6184 H         1 <0>         0.0361
     59 H19        16.8636    1.0912   53.1623 H         1 <0>         0.0558
     60 H20        16.5318    1.6258   51.5235 H         1 <0>         0.0558
     61 H21        19.5553   -1.8238   54.6928 H         1 <0>         0.1466
     62 H22        22.3522   -3.8512   56.7496 H         1 <0>         0.0417
     63 H23        23.0026   -3.7804   55.0823 H         1 <0>         0.0417
     64 H24        21.2577   -4.0297   55.3534 H         1 <0>         0.0417
     65 H25        23.2286   -0.1413   51.8084 H         1 <0>         0.1595
     66 H26        20.8939    0.0489   51.0527 H         1 <0>         0.1437
     67 H27        24.2386   -1.9878   54.7074 H         1 <0>         0.4625
     68 H28        28.3408   -0.3512   54.6409 H         1 <0>         0.0399
     69 H29        26.8840    3.0465   51.8845 H         1 <0>         0.5056
     70 H30        23.4752    2.4138   52.7783 H         1 <0>         0.1563
     71 H31        21.5431    3.3976   51.5944 H         1 <0>         0.1395
     72 H32        21.8824    4.6481   49.4785 H         1 <0>         0.1387
     73 H33        24.1600    4.9124   48.5453 H         1 <0>         0.1329
     74 H34        27.5565    4.9980   47.4131 H         1 <0>         0.0941
     75 H35        25.9533    4.2651   47.1822 H         1 <0>         0.0941
     76 H36        26.1029    5.8358   48.0014 H         1 <0>         0.0941
     77 H37        28.3677    2.5113   48.5497 H         1 <0>         0.0941
     78 H38        27.4317    1.7630   49.8630 H         1 <0>         0.0941
     79 H39        26.7127    1.9371   48.2464 H         1 <0>         0.0941
@<TRIPOS>BOND
     1    1    2 1
     2    2    7 1
     3    2    3 1
     4    3    4 1
     5    4    5 1
     6    5    6 1
     7    6    7 1
     8    5    8 1
     9    8   13 1
    10    8    9 1
    11    9   10 1
    12   10   11 1
    13   11   12 1
    14   12   13 1
    15   11   14 1
    16   14   21 ar
    17   14   15 ar
    18   15   16 ar
    19   16   17 1
    20   17   18 1
    21   16   19 ar
    22   19   20 ar
    23   20   21 ar
    24   19   22 1
    25   22   23 1
    26   23   29 ar
    27   23   24 ar
    28   24   25 ar
    29   25   26 ar
    30   26   27 1
    31   26   28 ar
    32   28   29 ar
    33   28   30 1
    34   30   31 1
    35   31   36 ar
    36   31   32 ar
    37   32   33 ar
    38   33   34 ar
    39   34   35 ar
    40   35   36 ar
    41   36   37 1
    42   37   38 2
    43   37   39 1
    44   37   40 1
    45    1   41 1
    46    1   42 1
    47    1   43 1
    48    3   44 1
    49    3   45 1
    50    4   46 1
    51    4   47 1
    52    6   48 1
    53    6   49 1
    54    7   50 1
    55    7   51 1
    56    8   52 1
    57    9   53 1
    58    9   54 1
    59   10   55 1
    60   10   56 1
    61   12   57 1
    62   12   58 1
    63   13   59 1
    64   13   60 1
    65   15   61 1
    66   18   62 1
    67   18   63 1
    68   18   64 1
    69   20   65 1
    70   21   66 1
    71   22   67 1
    72   25   68 1
    73   30   69 1
    74   32   70 1
    75   33   71 1
    76   34   72 1
    77   35   73 1
    78   39   74 1
    79   39   75 1
    80   39   76 1
    81   40   77 1
    82   40   78 1
    83   40   79 1
@<TRIPOS>MOLECULE
Cabozantinib
   61    65     0     0     0
SMALL
USER_CHARGES

@<TRIPOS>ATOM
      1 C1         28.2610    4.0116   52.4735 C.3       1 <0>         0.1210
      2 O1         27.3061    3.3585   51.6453 O.3       1 <0>        -0.3459
      3 C2         26.6677    2.2796   52.1787 C.ar      1 <0>         0.1002
      4 C3         27.2200    1.0067   52.0157 C.ar      1 <0>        -0.1885
      5 C4         25.4783    2.4366   52.8794 C.ar      1 <0>         0.0750
      6 O2         24.9270    3.6699   53.0475 O.3       1 <0>        -0.3393
      7 C5         24.0093    4.1122   52.0487 C.3       1 <0>         0.1173
      8 C6         24.8441    1.3196   53.4154 C.ar      1 <0>        -0.0984
      9 C7         25.3998    0.0393   53.2513 C.ar      1 <0>        -0.1574
     10 C8         26.6072   -0.1276   52.5412 C.ar      1 <0>         0.4159
     11 C9         24.7824   -1.1021   53.7804 C.ar      1 <0>         0.1706
     12 C10        25.3564   -2.3525   53.6012 C.ar      1 <0>        -0.3309
     13 C11        26.5388   -2.4161   52.8923 C.ar      1 <0>         0.4415
     14 N1         27.1666   -1.3397   52.3657 N.ar      1 <0>        -0.6766
     15 O3         23.6131   -1.0230   54.4795 O.3       1 <0>        -0.2420
     16 C12        22.5114   -0.4997   53.8272 C.ar      1 <0>         0.0429
     17 C13        21.6985    0.4336   54.4705 C.ar      1 <0>        -0.1009
     18 C14        20.5872    0.9612   53.8130 C.ar      1 <0>        -0.1613
     19 C15        20.2888    0.5555   52.5122 C.ar      1 <0>         0.0733
     20 C16        21.1017   -0.3778   51.8690 C.ar      1 <0>        -0.1613
     21 C17        22.2130   -0.9055   52.5265 C.ar      1 <0>        -0.1009
     22 N2         19.1751    1.0805   51.8560 N.am      1 <0>        -0.4594
     23 C18        18.7202    0.7964   50.5614 C.2       1 <0>         0.7113
     24 O4         19.2164    0.0219   49.7497 O.2       1 <0>        -0.5686
     25 C19        17.4743    1.5759   50.2229 C.3       1 <0>        -0.2958
     26 C20        16.8114    1.2172   48.9209 C.3       1 <0>        -0.0970
     27 C21        17.5788    2.4958   49.0371 C.3       1 <0>        -0.0970
     28 C22        16.6295    1.9813   51.3495 C.2       1 <0>         0.7102
     29 O5         17.0461    2.7151   52.2706 O.2       1 <0>        -0.5801
     30 N3         15.3293    1.4543   51.2707 N.am      1 <0>        -0.4605
     31 C23        14.2428    1.6215   52.1618 C.ar      1 <0>         0.0530
     32 C24        13.0206    1.0045   51.8950 C.ar      1 <0>        -0.1433
     33 C25        11.9495    1.1699   52.7730 C.ar      1 <0>        -0.1378
     34 C26        12.1005    1.9522   53.9179 C.ar      1 <0>         0.1006
     35 F1         11.0712    2.1131   54.7597 F         1 <0>        -0.1396
     36 C27        13.3228    2.5691   54.1848 C.ar      1 <0>        -0.1378
     37 C28        14.3939    2.4038   53.3067 C.ar      1 <0>        -0.1433
     38 H1         28.6980    4.8543   51.9322 H         1 <0>         0.0438
     39 H2         29.0428    3.3030   52.7584 H         1 <0>         0.0438
     40 H3         27.7600    4.3792   53.3721 H         1 <0>         0.0438
     41 H4         28.1526    0.9031   51.4629 H         1 <0>         0.1650
     42 H5         23.6515    5.1066   52.3118 H         1 <0>         0.0436
     43 H6         23.1796    3.4084   51.9932 H         1 <0>         0.0436
     44 H7         24.5304    4.1469   51.0930 H         1 <0>         0.0436
     45 H8         23.9133    1.4578   53.9618 H         1 <0>         0.1643
     46 H9         24.8979   -3.2501   54.0004 H         1 <0>         0.1586
     47 H10        27.0332   -3.3665   52.7202 H         1 <0>         0.0242
     48 H11        21.9264    0.7540   55.4834 H         1 <0>         0.1546
     49 H12        19.9599    1.6873   54.3240 H         1 <0>         0.1579
     50 H13        20.8781   -0.7015   50.8557 H         1 <0>         0.1579
     51 H14        22.8426   -1.6318   52.0197 H         1 <0>         0.1546
     52 H15        18.6142    1.7602   52.3826 H         1 <0>         0.3319
     53 H16        17.2330    0.4318   48.3042 H         1 <0>         0.0906
     54 H17        15.7307    1.2819   48.8701 H         1 <0>         0.0906
     55 H18        18.5164    2.5705   48.4985 H         1 <0>         0.0906
     56 H19        17.0141    3.4206   49.0643 H         1 <0>         0.0906
     57 H20        15.1427    0.8700   50.4584 H         1 <0>         0.3220
     58 H21        12.8914    0.3924   51.0059 H         1 <0>         0.1556
     59 H22        10.9974    0.6901   52.5660 H         1 <0>         0.1521
     60 H23        13.4394    3.1781   55.0764 H         1 <0>         0.1521
     61 H24        15.3418    2.8893   53.5248 H         1 <0>         0.1556
@<TRIPOS>BOND
     1    1    2 1
     2    2    3 1
     3    3    4 ar
     4    4   10 ar
     5    3    5 ar
     6    5    6 1
     7    6    7 1
     8    5    8 ar
     9    8    9 ar
    10    9   10 ar
    11   10   14 ar
    12    9   11 ar
    13   11   12 ar
    14   12   13 ar
    15   13   14 ar
    16   11   15 1
    17   15   16 1
    18   16   21 ar
    19   16   17 ar
    20   17   18 ar
    21   18   19 ar
    22   19   20 ar
    23   20   21 ar
    24   19   22 1
    25   22   23 am
    26   23   24 2
    27   23   25 1
    28   25   27 1
    29   25   26 1
    30   26   27 1
    31   25   28 1
    32   28   29 2
    33   28   30 am
    34   30   31 1
    35   31   37 ar
    36   31   32 ar
    37   32   33 ar
    38   33   34 ar
    39   34   35 1
    40   34   36 ar
    41   36   37 ar
    42    1   38 1
    43    1   39 1
    44    1   40 1
    45    4   41 1
    46    7   42 1
    47    7   43 1
    48    7   44 1
    49    8   45 1
    50   12   46 1
    51   13   47 1
    52   17   48 1
    53   18   49 1
    54   20   50 1
    55   21   51 1
    56   22   52 1
    57   26   53 1
    58   26   54 1
    59   27   55 1
    60   27   56 1
    61   30   57 1
    62   32   58 1
    63   33   59 1
    64   36   60 1
    65   37   61 1
@<TRIPOS>MOLECULE
Midostaurin
   73    81     0     0     0
SMALL
USER_CHARGES

@<TRIPOS>ATOM
      1 C1         15.4890   -0.0986   52.3351 C.ar      1 <0>        -0.0965
      2 C2         14.6843    0.5999   53.2352 C.ar      1 <0>        -0.1347
      3 C3         14.1282    1.8253   52.8679 C.ar      1 <0>        -0.1108
      4 C4         14.3768    2.3521   51.6004 C.ar      1 <0>        -0.1347
      5 C5         15.1816    1.6534   50.7004 C.ar      1 <0>        -0.0965
      6 C6         15.7376    0.4281   51.0677 C.ar      1 <0>        -0.1338
      7 C7         16.5871   -0.3079   50.1180 C.2       1 <0>         0.6717
      8 O1         16.0114   -1.1022   49.3751 O.2       1 <0>        -0.5932
      9 N1         17.9650   -0.0684   50.1363 N.am      1 <0>        -0.4658
     10 C8         18.8286   -0.7966   49.2176 C.3       1 <0>         0.0593
     11 C9         18.6297    0.8657   51.0102 C.3       1 <0>         0.1013
     12 H1         17.8879    1.6494   51.1892 H         1 <0>         0.0912
     13 C10        19.0332    0.2273   52.3463 C.3       1 <0>         0.0900
     14 H2         18.1334    0.1073   52.9279 H         1 <0>         0.0682
     15 O2         19.5625   -1.0793   52.1104 O.3       1 <0>        -0.4009
     16 C11        18.5284   -2.0359   51.9178 C.3       1 <0>         0.1117
     17 C12        19.8633    1.4590   50.3518 C.3       1 <0>        -0.1335
     18 C13        20.4462    2.5367   51.2643 C.3       1 <0>         0.4513
     19 H3         20.0564    3.4885   50.9414 H         1 <0>         0.0959
     20 O3         20.0943    2.4418   52.6276 O.3       1 <0>        -0.4059
     21 N2         21.8760    2.6444   51.1919 N.pl3     1 <0>        -0.5429
     22 C14        22.8603    2.0166   51.8924 C.ar      1 <0>         0.0932
     23 C15        22.6231    1.0173   52.8787 C.ar      1 <0>         0.1369
     24 N3         21.3862    0.5825   53.3067 N.pl3     1 <0>        -0.5163
     25 C16        20.0301    1.1205   53.1667 C.3       1 <0>         0.4586
     26 C17        19.4180    1.4191   54.5578 C.3       1 <0>        -0.1099
     27 C18        22.5991    3.4798   50.3449 C.ar      1 <0>         0.1481
     28 C19        23.9991    3.3300   50.5832 C.ar      1 <0>        -0.0877
     29 C20        24.8768    4.1226   49.8003 C.ar      1 <0>        -0.0523
     30 C21        24.3871    5.0090   48.8367 C.ar      1 <0>        -0.1718
     31 C22        23.0248    5.1296   48.6213 C.ar      1 <0>        -0.0888
     32 C23        22.1196    4.3725   49.3642 C.ar      1 <0>        -0.1771
     33 C24        24.2528    2.3250   51.6247 C.ar      1 <0>         0.0281
     34 C25        25.3673    1.7524   52.2298 C.ar      1 <0>        -0.1388
     35 C26        25.1619    0.7469   53.1614 C.ar      1 <0>        -0.0610
     36 C27        26.4655    0.2205   53.6626 C.3       1 <0>         0.1363
     37 N4         27.4142    1.0335   52.9307 N.am      1 <0>        -0.5884
     38 C28        26.8066    1.9463   52.0743 C.2       1 <0>         0.7227
     39 O4         27.3480    2.7501   51.3409 O.2       1 <0>        -0.6290
     40 C29        23.8306    0.4264   53.4157 C.ar      1 <0>        -0.0426
     41 C30        23.1789   -0.5755   54.2468 C.ar      1 <0>        -0.0782
     42 C31        21.7591   -0.4983   54.1347 C.ar      1 <0>         0.1516
     43 C32        20.9559   -1.4379   54.8199 C.ar      1 <0>        -0.1534
     44 C33        21.5461   -2.4140   55.6259 C.ar      1 <0>        -0.1029
     45 C34        22.9211   -2.4803   55.7635 C.ar      1 <0>        -0.1610
     46 C35        23.7367   -1.5777   55.0820 C.ar      1 <0>        -0.0773
     47 H4         15.9165   -1.0531   52.6318 H         1 <0>         0.1432
     48 H5         14.4903    0.1902   54.2222 H         1 <0>         0.1383
     49 H6         13.5006    2.3685   53.5682 H         1 <0>         0.1383
     50 H7         13.9431    3.3058   51.3146 H         1 <0>         0.1383
     51 H8         15.3679    2.0738   49.7153 H         1 <0>         0.1432
     52 H9         18.9207   -0.2338   48.2925 H         1 <0>         0.0514
     53 H10        18.3935   -1.7713   49.0121 H         1 <0>         0.0514
     54 H11        19.8091   -0.9222   49.6696 H         1 <0>         0.0514
     55 H12        18.9740   -3.0158   51.7415 H         1 <0>         0.0383
     56 H13        17.9174   -1.7377   51.0646 H         1 <0>         0.0383
     57 H14        17.9119   -2.0699   52.8168 H         1 <0>         0.0383
     58 H15        20.5840    0.6991   50.1019 H         1 <0>         0.0780
     59 H16        19.5399    1.9412   49.4376 H         1 <0>         0.0780
     60 H17        18.4197    1.8139   54.4221 H         1 <0>         0.0636
     61 H18        20.0401    2.1456   55.0638 H         1 <0>         0.0636
     62 H19        19.3807    0.4997   55.1271 H         1 <0>         0.0636
     63 H20        25.9507    4.0579   49.9286 H         1 <0>         0.1737
     64 H21        25.0829    5.6046   48.2517 H         1 <0>         0.1355
     65 H22        22.6555    5.8190   47.8666 H         1 <0>         0.1307
     66 H23        21.0560    4.4793   49.1743 H         1 <0>         0.1322
     67 H24        26.6010    0.3918   54.7331 H         1 <0>         0.0592
     68 H25        26.6213   -0.8284   53.3997 H         1 <0>         0.0592
     69 H26        28.4206    0.9463   53.0322 H         1 <0>         0.3289
     70 H27        19.8804   -1.4406   54.7416 H         1 <0>         0.1349
     71 H28        20.9171   -3.1283   56.1498 H         1 <0>         0.1315
     72 H29        23.3692   -3.2427   56.3959 H         1 <0>         0.1328
     73 H30        24.8135   -1.6609   55.1935 H         1 <0>         0.1336
@<TRIPOS>BOND
     1    1    6 ar
     2    1    2 ar
     3    2    3 ar
     4    3    4 ar
     5    4    5 ar
     6    5    6 ar
     7    6    7 1
     8    7    8 2
     9    7    9 am
    10    9   10 1
    11    9   11 1
    12   11   12 1
    13   11   13 1
    14   13   14 1
    15   13   25 1
    16   13   15 1
    17   15   16 1
    18   11   17 1
    19   17   18 1
    20   18   19 1
    21   18   20 1
    22   20   25 1
    23   18   21 1
    24   21   22 1
    25   22   33 ar
    26   22   23 ar
    27   23   40 ar
    28   23   24 1
    29   24   42 1
    30   24   25 1
    31   25   26 1
    32   21   27 1
    33   27   32 ar
    34   27   28 ar
    35   28   29 ar
    36   29   30 ar
    37   30   31 ar
    38   31   32 ar
    39   28   33 1
    40   33   34 ar
    41   34   38 1
    42   34   35 ar
    43   35   36 1
    44   36   37 1
    45   37   38 am
    46   38   39 2
    47   35   40 ar
    48   40   41 1
    49   41   46 ar
    50   41   42 ar
    51   42   43 ar
    52   43   44 ar
    53   44   45 ar
    54   45   46 ar
    55    1   47 1
    56    2   48 1
    57    3   49 1
    58    4   50 1
    59    5   51 1
    60   10   52 1
    61   10   53 1
    62   10   54 1
    63   16   55 1
    64   16   56 1
    65   16   57 1
    66   17   58 1
    67   17   59 1
    68   26   60 1
    69   26   61 1
    70   26   62 1
    71   29   63 1
    72   30   64 1
    73   31   65 1
    74   32   66 1
    75   36   67 1
    76   36   68 1
    77   37   69 1
    78   43   70 1
    79   44   71 1
    80   45   72 1
    81   46   73 1
@<TRIPOS>MOLECULE
Neratinib
   69    72     0     0     0
SMALL
USER_CHARGES

@<TRIPOS>ATOM
      1 C1         25.1226    8.8089   47.4975 C.3       1 <0>         0.1411
      2 N1         24.8007    7.8538   48.5571 N.3       1 <0>        -0.7093
      3 C2         24.9472    8.4794   49.8709 C.3       1 <0>         0.1411
      4 C3         25.6533    6.6735   48.4562 C.3       1 <0>         0.1682
      5 C4         25.0612    5.5011   49.1804 C.2       1 <0>        -0.0587
      6 C5         25.6741    4.8777   50.1968 C.2       1 <0>        -0.2569
      7 C6         25.0315    3.7084   50.8672 C.2       1 <0>         0.6709
      8 O1         23.9363    3.2920   50.5086 O.2       1 <0>        -0.6001
      9 N2         25.8351    3.2181   51.8882 N.am      1 <0>        -0.4588
     10 C7         25.5674    2.1380   52.7323 C.ar      1 <0>         0.0698
     11 C8         26.4732    1.7609   53.7159 C.ar      1 <0>         0.0856
     12 C9         26.1879    0.6773   54.5503 C.ar      1 <0>        -0.1906
     13 O2         27.6463    2.4345   53.8841 O.3       1 <0>        -0.3582
     14 C10        28.8502    1.6867   53.7284 C.3       1 <0>         0.1292
     15 C11        29.9339    2.6091   53.2182 C.3       1 <0>        -0.1044
     16 C12        24.3780    1.4299   52.5857 C.ar      1 <0>        -0.1526
     17 C13        24.0913    0.3400   53.4251 C.ar      1 <0>        -0.1646
     18 C14        25.0063   -0.0484   54.4260 C.ar      1 <0>         0.4117
     19 C15        22.9018   -0.3902   53.2994 C.ar      1 <0>         0.2337
     20 C16        22.6480   -1.4614   54.1438 C.ar      1 <0>        -0.1663
     21 C17        23.6028   -1.7661   55.0927 C.ar      1 <0>         0.4538
     22 N3         24.7627   -1.0875   55.2469 N.ar      1 <0>        -0.6652
     23 C18        21.4535   -2.2426   54.0626 C.1       1 <0>         0.2494
     24 N4         20.4832   -2.8773   53.9967 N.1       1 <0>        -0.3632
     25 N5         21.9422   -0.0467   52.3122 N.pl3     1 <0>        -0.6444
     26 C19        20.5985    0.3467   52.3965 C.ar      1 <0>         0.1363
     27 C20        20.1454    1.0455   53.5154 C.ar      1 <0>        -0.1279
     28 C21        18.8093    1.4371   53.5992 C.ar      1 <0>        -0.1334
     29 C22        17.9262    1.1298   52.5641 C.ar      1 <0>         0.0884
     30 C23        18.3793    0.4310   51.4452 C.ar      1 <0>         0.0287
     31 Cl1        17.3088    0.0378   50.1508 Cl        1 <0>        -0.0691
     32 C24        19.7155    0.0394   51.3614 C.ar      1 <0>        -0.1503
     33 O3         16.6265    1.5261   52.6720 O.3       1 <0>        -0.3189
     34 C25        15.8868    1.0243   53.7829 C.3       1 <0>         0.0804
     35 C26        14.4439    0.9165   53.3938 C.ar      1 <0>         0.3963
     36 C27        13.9780   -0.2616   52.8328 C.ar      1 <0>        -0.2220
     37 C28        12.6340   -0.3288   52.4827 C.ar      1 <0>        -0.0964
     38 C29        11.8087    0.7686   52.7016 C.ar      1 <0>        -0.2394
     39 C30        12.3716    1.9006   53.2686 C.ar      1 <0>         0.3934
     40 N6         13.6725    2.0032   53.6217 N.ar      1 <0>        -0.6479
     41 H1         25.0113    8.3356   46.5185 H         1 <0>         0.0364
     42 H2         26.1531    9.1587   47.6041 H         1 <0>         0.0364
     43 H3         24.4527    9.6714   47.5496 H         1 <0>         0.0364
     44 H4         24.7028    7.7500   50.6356 H         1 <0>         0.0364
     45 H5         24.2720    9.3261   49.9357 H         1 <0>         0.0364
     46 H6         25.9724    8.8135   49.9902 H         1 <0>         0.0364
     47 H7         25.7847    6.4125   47.4003 H         1 <0>         0.0461
     48 H8         26.6436    6.9210   48.8548 H         1 <0>         0.0461
     49 H9         24.0925    5.1554   48.8274 H         1 <0>         0.1609
     50 H10        26.6447    5.2126   50.5478 H         1 <0>         0.1383
     51 H11        26.7189    3.7003   52.0384 H         1 <0>         0.3377
     52 H12        26.9098    0.3962   55.3158 H         1 <0>         0.1636
     53 H13        29.1243    1.2657   54.6982 H         1 <0>         0.0460
     54 H14        28.6653    0.8763   53.0201 H         1 <0>         0.0460
     55 H15        30.8738    2.0656   53.0873 H         1 <0>         0.0484
     56 H16        29.6459    3.0533   52.2597 H         1 <0>         0.0484
     57 H17        30.0988    3.4369   53.9159 H         1 <0>         0.0484
     58 H18        23.6806    1.7394   51.8098 H         1 <0>         0.1796
     59 H19        23.4717   -2.5903   55.7883 H         1 <0>         0.0354
     60 H20        22.3055   -0.0990   51.3687 H         1 <0>         0.4370
     61 H21        20.8254    1.2913   54.3269 H         1 <0>         0.1470
     62 H22        18.4633    1.9820   54.4736 H         1 <0>         0.1499
     63 H23        20.0736   -0.5051   50.4902 H         1 <0>         0.1545
     64 H24        16.0192    1.7046   54.6284 H         1 <0>         0.0577
     65 H25        16.2909    0.0481   54.0638 H         1 <0>         0.0577
     66 H26        14.6324   -1.1107   52.6673 H         1 <0>         0.1482
     67 H27        12.2305   -1.2346   52.0403 H         1 <0>         0.1394
     68 H28        10.7581    0.7388   52.4366 H         1 <0>         0.1432
     69 H29        11.7704    2.7834   53.4599 H         1 <0>         0.0228
@<TRIPOS>BOND
     1    1    2 1
     2    2    3 1
     3    2    4 1
     4    4    5 1
     5    5    6 2
     6    6    7 1
     7    7    8 2
     8    7    9 am
     9    9   10 1
    10   10   11 ar
    11   11   12 ar
    12   12   18 ar
    13   11   13 1
    14   13   14 1
    15   14   15 1
    16   10   16 ar
    17   16   17 ar
    18   17   18 ar
    19   18   22 ar
    20   17   19 ar
    21   19   20 ar
    22   20   21 ar
    23   21   22 ar
    24   20   23 1
    25   23   24 3
    26   19   25 1
    27   25   26 1
    28   26   32 ar
    29   26   27 ar
    30   27   28 ar
    31   28   29 ar
    32   29   30 ar
    33   30   31 1
    34   30   32 ar
    35   29   33 1
    36   33   34 1
    37   34   35 1
    38   35   40 ar
    39   35   36 ar
    40   36   37 ar
    41   37   38 ar
    42   38   39 ar
    43   39   40 ar
    44    1   41 1
    45    1   42 1
    46    1   43 1
    47    3   44 1
    48    3   45 1
    49    3   46 1
    50    4   47 1
    51    4   48 1
    52    5   49 1
    53    6   50 1
    54    9   51 1
    55   12   52 1
    56   14   53 1
    57   14   54 1
    58   15   55 1
    59   15   56 1
    60   15   57 1
    61   16   58 1
    62   21   59 1
    63   25   60 1
    64   27   61 1
    65   28   62 1
    66   32   63 1
    67   34   64 1
    68   34   65 1
    69   36   66 1
    70   37   67 1
    71   38   68 1
    72   39   69 1
@<TRIPOS>MOLECULE
Abemaciclib
   69    73     0     0     0
SMALL
USER_CHARGES

@<TRIPOS>ATOM
      1 C1         12.6893    4.8145   53.9392 C.3       1 <0>        -0.0971
      2 C2         12.6963    3.8532   52.7997 C.3       1 <0>         0.1693
      3 N1         14.0416    3.6963   52.2503 N.3       1 <0>        -0.7292
      4 C3         14.0282    2.8031   51.0853 C.3       1 <0>         0.1653
      5 C4         15.4388    2.6353   50.5102 C.3       1 <0>         0.1720
      6 N2         16.3627    2.1293   51.5325 N.3       1 <0>        -0.7373
      7 C5         16.3770    3.0229   52.6972 C.3       1 <0>         0.1720
      8 C6         14.9667    3.1920   53.2726 C.3       1 <0>         0.1653
      9 C7         17.7079    1.9704   50.9837 C.3       1 <0>         0.2234
     10 C8         18.5214    1.0365   51.8165 C.ar      1 <0>        -0.2186
     11 C9         17.9912   -0.1662   52.2701 C.ar      1 <0>        -0.0671
     12 C10        18.7732   -1.0164   53.0438 C.ar      1 <0>        -0.2342
     13 C11        20.0691   -0.6210   53.3339 C.ar      1 <0>         0.6309
     14 N3         20.6188    0.5395   52.9113 N.ar      1 <0>        -0.7093
     15 C12        19.8284    1.3401   52.1617 C.ar      1 <0>         0.4319
     16 N4         20.8539   -1.4991   54.1222 N.pl3     1 <0>        -0.8155
     17 C13        22.1730   -1.4230   54.5964 C.ar      1 <0>         0.8741
     18 N5         22.4294   -2.0440   55.7635 N.ar      1 <0>        -0.7194
     19 C14        23.7061   -1.9506   56.1897 C.ar      1 <0>         0.4347
     20 C15        24.6960   -1.2767   55.5038 C.ar      1 <0>        -0.1580
     21 F1         25.9486   -1.2121   55.9672 F         1 <0>        -0.1211
     22 C16        24.3047   -0.6831   54.3211 C.ar      1 <0>         0.5161
     23 N6         23.0470   -0.7366   53.8357 N.ar      1 <0>        -0.7225
     24 C17        25.2414    0.0533   53.5064 C.ar      1 <0>        -0.1253
     25 C18        24.7794    1.1179   52.7256 C.ar      1 <0>        -0.1150
     26 C19        26.5903   -0.3092   53.5124 C.ar      1 <0>        -0.1539
     27 C20        27.5269    0.3832   52.7345 C.ar      1 <0>         0.1804
     28 F2         28.8167    0.0246   52.7499 F         1 <0>        -0.1218
     29 C21        27.0801    1.4553   51.9438 C.ar      1 <0>         0.0470
     30 C22        25.7298    1.7930   51.9589 C.ar      1 <0>         0.0735
     31 N7         27.7829    2.2867   51.1021 N.2       1 <0>        -0.5543
     32 C23        26.8865    3.1137   50.6126 C.2       1 <0>         0.5438
     33 C24        27.1484    4.2051   49.6521 C.3       1 <0>        -0.1165
     34 N8         25.6347    2.8568   51.0987 N.pl3     1 <0>        -0.5802
     35 C25        24.4249    3.5752   50.7672 C.3       1 <0>         0.2377
     36 C26        23.7596    4.2200   51.9957 C.3       1 <0>        -0.1138
     37 C27        23.4136    2.7128   49.9921 C.3       1 <0>        -0.1138
     38 H1         11.6793    4.9289   54.3477 H         1 <0>         0.0393
     39 H2         13.3649    4.4817   54.7347 H         1 <0>         0.0393
     40 H3         13.0287    5.7992   53.5964 H         1 <0>         0.0393
     41 H4         12.0462    4.2083   51.9944 H         1 <0>         0.0318
     42 H5         12.3509    2.8665   53.1222 H         1 <0>         0.0318
     43 H6         13.6182    1.8191   51.3506 H         1 <0>         0.0381
     44 H7         13.3850    3.2242   50.3031 H         1 <0>         0.0381
     45 H8         15.3879    1.9276   49.6738 H         1 <0>         0.0373
     46 H9         15.7891    3.5946   50.1053 H         1 <0>         0.0373
     47 H10        17.0202    2.6017   53.4795 H         1 <0>         0.0373
     48 H11        16.7877    4.0066   52.4314 H         1 <0>         0.0373
     49 H12        14.6167    2.2332   53.6790 H         1 <0>         0.0381
     50 H13        15.0179    3.9007   54.1080 H         1 <0>         0.0381
     51 H14        18.1495    2.9642   50.9450 H         1 <0>         0.0415
     52 H15        17.5867    1.6102   49.9643 H         1 <0>         0.0415
     53 H16        16.9704   -0.4477   52.0254 H         1 <0>         0.1435
     54 H17        18.3674   -1.9570   53.4019 H         1 <0>         0.1658
     55 H18        20.2968    2.2643   51.8376 H         1 <0>         0.0306
     56 H19        20.3618   -2.3428   54.3913 H         1 <0>         0.4673
     57 H20        23.9191   -2.4488   57.1294 H         1 <0>         0.0430
     58 H21        23.7342    1.4095   52.7127 H         1 <0>         0.1487
     59 H22        26.9362   -1.1398   54.1245 H         1 <0>         0.1628
     60 H23        27.0485    3.8510   48.6134 H         1 <0>         0.0648
     61 H24        26.4524    5.0499   49.7877 H         1 <0>         0.0648
     62 H25        28.1626    4.6228   49.7689 H         1 <0>         0.0648
     63 H26        24.7014    4.4063   50.0943 H         1 <0>         0.0634
     64 H27        22.8459    4.7587   51.7229 H         1 <0>         0.0502
     65 H28        24.4323    4.9323   52.4854 H         1 <0>         0.0502
     66 H29        23.4883    3.4531   52.7297 H         1 <0>         0.0502
     67 H30        22.5138    3.2938   49.7614 H         1 <0>         0.0502
     68 H31        23.1089    1.8362   50.5737 H         1 <0>         0.0502
     69 H32        23.8313    2.3550   49.0449 H         1 <0>         0.0502
@<TRIPOS>BOND
     1    1    2 1
     2    2    3 1
     3    3    8 1
     4    3    4 1
     5    4    5 1
     6    5    6 1
     7    6    7 1
     8    7    8 1
     9    6    9 1
    10    9   10 1
    11   10   15 ar
    12   10   11 ar
    13   11   12 ar
    14   12   13 ar
    15   13   14 ar
    16   14   15 ar
    17   13   16 1
    18   16   17 1
    19   17   23 ar
    20   17   18 ar
    21   18   19 ar
    22   19   20 ar
    23   20   21 1
    24   20   22 ar
    25   22   23 ar
    26   22   24 1
    27   24   25 ar
    28   25   30 ar
    29   24   26 ar
    30   26   27 ar
    31   27   28 1
    32   27   29 ar
    33   29   30 ar
    34   30   34 1
    35   29   31 1
    36   31   32 2
    37   32   33 1
    38   32   34 1
    39   34   35 1
    40   35   36 1
    41   35   37 1
    42    1   38 1
    43    1   39 1
    44    1   40 1
    45    2   41 1
    46    2   42 1
    47    4   43 1
    48    4   44 1
    49    5   45 1
    50    5   46 1
    51    7   47 1
    52    7   48 1
    53    8   49 1
    54    8   50 1
    55    9   51 1
    56    9   52 1
    57   11   53 1
    58   12   54 1
    59   15   55 1
    60   16   56 1
    61   19   57 1
    62   25   58 1
    63   26   59 1
    64   33   60 1
    65   33   61 1
    66   33   62 1
    67   35   63 1
    68   36   64 1
    69   36   65 1
    70   36   66 1
    71   37   67 1
    72   37   68 1
    73   37   69 1
@<TRIPOS>MOLECULE
Acalabrutinib
   58    62     0     0     0
SMALL
USER_CHARGES

@<TRIPOS>ATOM
      1 C1         23.4700    4.9076   52.1736 C.3       1 <0>        -0.0369
      2 C2         24.5314    4.0477   52.6951 C.1       1 <0>        -0.0410
      3 C3         25.4029    3.3416   53.1233 C.1       1 <0>        -0.1725
      4 C4         26.4523    2.4914   53.6390 C.2       1 <0>         0.7089
      5 O1         27.2172    2.9765   54.4665 O.2       1 <0>        -0.5850
      6 N1         26.5231    1.1922   53.1565 N.am      1 <0>        -0.4724
      7 C5         27.6490    0.3259   53.4692 C.3       1 <0>         0.1028
      8 C6         27.7292   -0.6207   52.2851 C.3       1 <0>        -0.0936
      9 C7         26.2694   -0.8041   51.8850 C.3       1 <0>        -0.0760
     10 C8         25.6299    0.5663   52.1654 C.3       1 <0>         0.1040
     11 H1         25.6331    1.1869   51.2245 H         1 <0>         0.0635
     12 C9         24.1915    0.4229   52.6126 C.2       1 <0>         0.3559
     13 N2         23.1412    0.9310   52.0021 N.2       1 <0>        -0.6132
     14 C10        22.0607    0.5460   52.7618 C.2       1 <0>         0.3637
     15 C11        22.4660   -0.2019   53.8418 C.2       1 <0>        -0.3308
     16 N3         23.8340   -0.2729   53.7330 N.pl3     1 <0>        -0.0512
     17 C12        21.7932   -0.8583   54.9531 C.2       1 <0>         0.7443
     18 N4         20.4270   -0.8245   55.1190 N.pl3     1 <0>        -0.9277
     19 N5         22.5207   -1.5130   55.8390 N.2       1 <0>        -0.6707
     20 C13        23.8970   -1.5521   55.6796 C.2       1 <0>         0.0917
     21 C14        24.5679   -0.9643   54.6741 C.2       1 <0>        -0.2116
     22 C15        20.7183    0.9067   52.4228 C.ar      1 <0>        -0.1038
     23 C16        20.1682    2.0894   52.9172 C.ar      1 <0>        -0.1141
     24 C17        18.8592    2.4409   52.5875 C.ar      1 <0>        -0.1024
     25 C18        18.1003    1.6097   51.7635 C.ar      1 <0>        -0.1392
     26 C19        18.6505    0.4271   51.2692 C.ar      1 <0>        -0.1024
     27 C20        19.9595    0.0756   51.5988 C.ar      1 <0>        -0.1141
     28 C21        16.7351    1.9762   51.4224 C.2       1 <0>         0.6798
     29 O2         16.1893    1.5657   50.3887 O.2       1 <0>        -0.5700
     30 N6         16.0835    2.7870   52.3649 N.am      1 <0>        -0.5496
     31 C22        14.7530    3.2759   52.3372 C.ar      1 <0>         0.5236
     32 C23        13.9662    2.9254   51.2518 C.ar      1 <0>        -0.2545
     33 C24        12.6596    3.3995   51.2153 C.ar      1 <0>        -0.0739
     34 C25        12.1865    4.1980   52.2505 C.ar      1 <0>        -0.2735
     35 C26        13.0529    4.4914   53.2912 C.ar      1 <0>         0.4223
     36 N7         14.3285    4.0493   53.3615 N.ar      1 <0>        -0.7129
     37 H2         22.7354    5.1352   52.9519 H         1 <0>         0.0669
     38 H3         23.8802    5.8536   51.8074 H         1 <0>         0.0669
     39 H4         22.9466    4.4212   51.3449 H         1 <0>         0.0669
     40 H5         28.5441    0.9491   53.5415 H         1 <0>         0.0589
     41 H6         27.4935   -0.1937   54.4160 H         1 <0>         0.0589
     42 H7         28.3359   -0.2204   51.4692 H         1 <0>         0.0609
     43 H8         28.1571   -1.5797   52.5967 H         1 <0>         0.0609
     44 H9         26.2145   -1.0170   50.8107 H         1 <0>         0.0604
     45 H10        25.7972   -1.6310   52.4236 H         1 <0>         0.0604
     46 H11        19.8895   -0.3306   54.4489 H         1 <0>         0.4524
     47 H12        20.0418   -1.2955   55.9010 H         1 <0>         0.4524
     48 H13        24.4373   -2.1056   56.4403 H         1 <0>         0.1719
     49 H14        25.6445   -1.0095   54.5722 H         1 <0>         0.1723
     50 H15        20.7470    2.7486   53.5601 H         1 <0>         0.1520
     51 H16        18.4406    3.3647   52.9784 H         1 <0>         0.1488
     52 H17        18.0678   -0.2279   50.6263 H         1 <0>         0.1488
     53 H18        20.3739   -0.8493   51.2047 H         1 <0>         0.1520
     54 H19        16.6080    3.0470   53.1965 H         1 <0>         0.3385
     55 H20        14.3431    2.3010   50.4484 H         1 <0>         0.1731
     56 H21        12.0112    3.1477   50.3815 H         1 <0>         0.1412
     57 H22        11.1714    4.5781   52.2430 H         1 <0>         0.1454
     58 H23        12.7328    5.1096   54.1235 H         1 <0>         0.0227
@<TRIPOS>BOND
     1    1    2 1
     2    2    3 3
     3    3    4 1
     4    4    5 2
     5    4    6 am
     6    6   10 1
     7    6    7 1
     8    7    8 1
     9    8    9 1
    10    9   10 1
    11   10   11 1
    12   10   12 1
    13   12   16 1
    14   12   13 2
    15   13   14 1
    16   14   15 2
    17   15   16 1
    18   16   21 1
    19   15   17 1
    20   17   18 1
    21   17   19 2
    22   19   20 1
    23   20   21 2
    24   14   22 1
    25   22   27 ar
    26   22   23 ar
    27   23   24 ar
    28   24   25 ar
    29   25   26 ar
    30   26   27 ar
    31   25   28 1
    32   28   29 2
    33   28   30 am
    34   30   31 1
    35   31   36 ar
    36   31   32 ar
    37   32   33 ar
    38   33   34 ar
    39   34   35 ar
    40   35   36 ar
    41    1   37 1
    42    1   38 1
    43    1   39 1
    44    7   40 1
    45    7   41 1
    46    8   42 1
    47    8   43 1
    48    9   44 1
    49    9   45 1
    50   18   46 1
    51   18   47 1
    52   20   48 1
    53   21   49 1
    54   23   50 1
    55   24   51 1
    56   26   52 1
    57   27   53 1
    58   30   54 1
    59   32   55 1
    60   33   56 1
    61   34   57 1
    62   35   58 1
@<TRIPOS>MOLECULE
Ribociclib
   62    66     0     0     0
SMALL
USER_CHARGES

@<TRIPOS>ATOM
      1 C1         24.7143    1.2537   51.7350 C.3       1 <0>        -0.0894
      2 C2         23.9843    2.4863   51.2222 C.3       1 <0>        -0.0802
      3 C3         23.3496    3.0621   52.4764 C.3       1 <0>        -0.0802
      4 C4         24.4345    2.9082   53.5365 C.3       1 <0>        -0.0894
      5 C5         25.2458    1.6659   53.1182 C.3       1 <0>         0.2300
      6 N1         25.2293    0.5774   54.0918 N.pl3     1 <0>        -0.5528
      7 C6         26.3325    0.0497   54.7124 C.2       1 <0>        -0.0043
      8 C7         27.6760    0.4925   54.4932 C.2       1 <0>         0.6879
      9 O1         28.1159    1.4071   55.2207 O.2       1 <0>        -0.5902
     10 N2         28.4527   -0.0982   53.4642 N.am      1 <0>        -0.4737
     11 C8         29.8187    0.3222   53.1855 C.3       1 <0>         0.0810
     12 C9         27.9341   -1.1684   52.6150 C.3       1 <0>         0.0810
     13 C10        25.9092   -0.9547   55.5569 C.2       1 <0>        -0.1146
     14 C11        24.4976   -1.0387   55.4459 C.ar      1 <0>        -0.3633
     15 C12        24.1052   -0.0729   54.5272 C.ar      1 <0>         0.6114
     16 C13        23.4847   -1.8142   56.0082 C.ar      1 <0>         0.5077
     17 N3         22.1994   -1.5982   55.6446 N.ar      1 <0>        -0.7367
     18 C14        21.9647   -0.6228   54.7381 C.ar      1 <0>         0.8850
     19 N4         22.8494    0.1899   54.1254 N.ar      1 <0>        -0.7536
     20 N5         20.6138   -0.4301   54.3866 N.pl3     1 <0>        -0.8171
     21 C15        19.9851    0.0177   53.1982 C.ar      1 <0>         0.6250
     22 N6         18.8071    0.6739   53.2940 N.ar      1 <0>        -0.6981
     23 C16        18.2496    1.0795   52.1311 C.ar      1 <0>         0.3867
     24 C17        18.8117    0.8613   50.8836 C.ar      1 <0>        -0.0100
     25 C18        20.0240    0.1828   50.8259 C.ar      1 <0>        -0.0934
     26 C19        20.6285   -0.2504   52.0007 C.ar      1 <0>        -0.2435
     27 N7         18.1798    1.3094   49.7181 N.pl3     1 <0>        -0.6524
     28 C20        16.7123    1.3804   49.7112 C.3       1 <0>         0.1951
     29 C21        16.1831    1.3779   48.2775 C.3       1 <0>         0.1595
     30 N8         16.8119    2.4261   47.4751 N.3       1 <0>        -0.8202
     31 C22        18.2599    2.2287   47.4357 C.3       1 <0>         0.1595
     32 C23        18.8667    2.2612   48.8383 C.3       1 <0>         0.1951
     33 H1         25.5234    0.9527   51.0618 H         1 <0>         0.0583
     34 H2         24.0151    0.4113   51.8098 H         1 <0>         0.0583
     35 H3         24.6983    3.2003   50.7946 H         1 <0>         0.0490
     36 H4         23.2451    2.2408   50.4546 H         1 <0>         0.0490
     37 H5         23.0402    4.1032   52.3475 H         1 <0>         0.0490
     38 H6         22.4668    2.4747   52.7562 H         1 <0>         0.0490
     39 H7         25.0894    3.7878   53.5115 H         1 <0>         0.0583
     40 H8         24.0089    2.8416   54.5431 H         1 <0>         0.0583
     41 H9         26.3286    1.9491   53.0359 H         1 <0>         0.0820
     42 H10        30.5041   -0.2731   53.7829 H         1 <0>         0.0463
     43 H11        29.9295    1.3735   53.4386 H         1 <0>         0.0463
     44 H12        30.0308    0.1764   52.1295 H         1 <0>         0.0463
     45 H13        27.4586   -0.7276   51.7449 H         1 <0>         0.0463
     46 H14        27.2107   -1.7485   53.1788 H         1 <0>         0.0463
     47 H15        28.7569   -1.8046   52.3053 H         1 <0>         0.0463
     48 H16        26.5466   -1.5618   56.1858 H         1 <0>         0.1642
     49 H17        23.6599   -2.5978   56.7347 H         1 <0>         0.0302
     50 H18        19.9619   -0.6562   55.1327 H         1 <0>         0.4591
     51 H19        17.3046    1.6033   52.2402 H         1 <0>         0.0238
     52 H20        20.5053   -0.0131   49.8714 H         1 <0>         0.1450
     53 H21        21.5746   -0.7806   51.9649 H         1 <0>         0.1693
     54 H22        16.2895    0.5219   50.2476 H         1 <0>         0.0428
     55 H23        16.3832    2.2913   50.2289 H         1 <0>         0.0428
     56 H24        16.3425    0.3959   47.8145 H         1 <0>         0.0355
     57 H25        15.1010    1.5483   48.2961 H         1 <0>         0.0355
     58 H26        16.4411    2.3905   46.5260 H         1 <0>         0.3647
     59 H27        18.5020    1.2816   46.9373 H         1 <0>         0.0355
     60 H28        18.7093    3.0270   46.8349 H         1 <0>         0.0355
     61 H29        19.9328    2.0119   48.7694 H         1 <0>         0.0428
     62 H30        18.7884    3.2746   49.2545 H         1 <0>         0.0428
@<TRIPOS>BOND
     1    1    5 1
     2    1    2 1
     3    2    3 1
     4    3    4 1
     5    4    5 1
     6    5    6 1
     7    6   15 1
     8    6    7 1
     9    7    8 1
    10    8    9 2
    11    8   10 am
    12   10   11 1
    13   10   12 1
    14    7   13 2
    15   13   14 1
    16   14   15 ar
    17   15   19 ar
    18   14   16 ar
    19   16   17 ar
    20   17   18 ar
    21   18   19 ar
    22   18   20 1
    23   20   21 1
    24   21   26 ar
    25   21   22 ar
    26   22   23 ar
    27   23   24 ar
    28   24   25 ar
    29   25   26 ar
    30   24   27 1
    31   27   32 1
    32   27   28 1
    33   28   29 1
    34   29   30 1
    35   30   31 1
    36   31   32 1
    37    1   33 1
    38    1   34 1
    39    2   35 1
    40    2   36 1
    41    3   37 1
    42    3   38 1
    43    4   39 1
    44    4   40 1
    45    5   41 1
    46   11   42 1
    47   11   43 1
    48   11   44 1
    49   12   45 1
    50   12   46 1
    51   12   47 1
    52   13   48 1
    53   16   49 1
    54   20   50 1
    55   23   51 1
    56   25   52 1
    57   26   53 1
    58   28   54 1
    59   28   55 1
    60   29   56 1
    61   29   57 1
    62   30   58 1
    63   31   59 1
    64   31   60 1
    65   32   61 1
    66   32   62 1
